! generator: yaml2ck
! cantera-version: 3.0.0
! date: Tue, 06 Feb 2024 15:14:10 -0800
! input-files: ['MMA-105-870-noP-cleaner.yaml']
!

ELEM
H C O N Ne Ar He Si S F Cl Br I
END

SPECIES
Ar  He  Ne  MMA  O2  H  HO2  O  OH  H2  H2O  H2O2(9)  CO  CO2  CH2O(13)  HCO(14)
CH3  CH4  CH2(17)  C2H4(19)  CH3OO(25)  CH2CO(26)  C2H5(27)  C2H2(30)  C2H(31)
C2H6(35)  OCHCO(60)  C5H8O2(71)  C5H8O2(79)  C4H5O2(80)  C3H5(85)  C2H3O2(86)
C4H6O(88)  C5H9O2(92)  C5H9O2(94)  C5H8O4(96)  S(104)  C3H5(107)  S(131)  S(147)
C4H6O(159)  C4H7O(165)  S(167)  S(168)  C4H6O(182)  C4H6O(183)  C3H6(184)
S(196)  C4H6O(222)  C4H6O(223)  C4H6O(234)  C4H6O(237)  C3H4(281)  C#CC(282)
C3H5(285)  C3H3(447)  C3H4(449)  S(520)  S(521)  C4H8(559)  C4H5O(571)  S(577)
C4H8(588)  C3H7(597)  C3H6(625)  C3H6(626)  C4H9(639)  C4H6O(649)  C4H6O(650)
C4H8(672)  S(682)  S(688)  C4H6O(699)  C4H6O(700)  C5H9O(726)  C4H6O(861)
C4H6O(906)  S(976)  S(982)  S(1048)  S(1097)  S(1120)  S(1286)  S(1558)  S(1703)
S(1750)  S(1779)  S(1808)  S(1811)  S(2099)  CHO3(2160)  S(2308)  S(2309)
S(2533)  S(2535)  C3HO(2612)  S(2631)  S(2693)  S(3450)  S(3451)  S(3540)
S(3617)  S(3625)  S(4106)  S(5203)
END

REACTIONS CAL/MOLE MOLE
C5H8O2(71) <=> MMA                                  389800000000.0 0.486 5464.0
MMA + O2 <=> C5H8O4(96)                             1551652.0000000002 1.975 13951.0
C5H8O2(79) <=> MMA                                  19260000000.0 0.137 8250.0
MMA <=> C4H6O(88) + CH2O(13)                        75080100000000.0 -0.291 67611.0
C5H8O2(79) <=> C4H6O(88) + CH2O(13)                 5000000000000.0 0.0 0.0
C4H6O(159) <=> C4H6O(88)                            194900000000.0 0.486 5464.0
C5H8O2(71) <=> S(104)                               73897080000.0 0.048 1933.0
C4H6O(159) <=> C4H6O(182)                           40136720000000.0 0.024 1317.0
C4H5O2(80) + CH3 <=> MMA                            24200000000000.004 0.0 0.0
C3H5(85) + CO2 <=> C4H5O2(80)                       6944.044000000001 2.41 20958.0
C4H6O(223) <=> C4H6O(182)                           2000000000000.0 0.0 1800.0
C4H6O(234) <=> C4H6O(182)                           7040.0 2.66 75000.0
C4H6O(223) <=> C4H6O(234)                           59421190000000.0 0.012 1289.0
C#CC(282) + H <=> C3H5(85)                          1500000000.0000002 1.64 3130.0
C4H6O(237) <=> C4H6O(182)                           7040.0 2.66 75000.0
C4H6O(223) <=> C4H6O(237)                           161966900000.0 0.025 1879.0
C3H5(85) + C5H8O2(79) <=> C#CC(282) + C5H9O2(94)    8204641.0 1.877 -1115.0
H + MMA <=> C5H9O2(94)                              226957400.00000003 1.64 -43.0
C5H8O2(79) + H <=> C5H9O2(94)                       16259800000000.002 0.255 0.0
C5H8O2(79) + C5H9O2(94) <=> C5H9O2(94) + MMA        17340000000000.004 0.0 0.0
S(196) <=> S(104)                                   2000000000000.0 0.0 1800.0
C3H5(85) + C5H8O4(96) <=> C#CC(282) + S(131)        8204641.0 1.877 -1115.0
C5H8O4(96) + H <=> S(131)                           5250690000.000001 1.273 0.0
C5H9O2(94) + O2 <=> S(131)                          7574160000000.001 -0.129 0.0
C5H8O4(96) + C5H9O2(94) <=> MMA + S(131)            138000000000000.03 -0.35 0.0
C5H8O4(96) + C5H9O2(94) <=> C5H8O2(79) + S(131)     0.0002746363000000001 4.602 6621.0
S(196) <=> S(520)                                   389800000000.0 0.486 5464.0
S(577) <=> S(520)                                   4.854946e+16 -0.885 20898.0
C3H5(85) + C5H8O2(79) <=> C#CC(282) + S(147)        8204641.0 1.877 -1115.0
C5H8O2(79) + H <=> S(147)                           16259800000000.002 0.255 0.0
S(147) <=> C5H9O2(94)                               18600000000.0 0.58 26190.0
C5H8O2(79) + C5H9O2(94) <=> MMA + S(147)            1.7160000000000002e+16 -1.1 0.0
C5H8O2(79) + S(147) <=> C5H8O2(79) + C5H9O2(94)     0.0011318580000000001 4.34 7638.0
C5H8O4(96) + S(147) <=> C5H8O2(79) + S(131)         0.00040139700000000006 4.34 2025.0
C3H5(85) + C5H8O2(71) <=> C#CC(282) + C5H9O2(92)    16409280.000000002 1.877 -1115.0
H + MMA <=> C5H9O2(92)                              156022000.00000003 1.561 2694.0
C5H8O2(71) + H <=> C5H9O2(92)                       183499800000000.03 0.115 0.0
C5H9O2(94) <=> C5H9O2(92)                           4614000000.0 1.31 48600.0
C5H8O2(79) + C5H9O2(92) <=> C5H9O2(94) + MMA        241000000000.00003 0.0 0.0
C5H8O2(71) + C5H9O2(94) <=> C5H9O2(92) + MMA        276000000000000.06 -0.35 0.0
C5H8O2(71) + C5H9O2(94) <=> C5H8O2(79) + C5H9O2(92) 0.0005492726000000002 4.602 6621.0
C5H8O4(96) + C5H9O2(92) <=> MMA + S(131)            843000000000.0001 0.0 0.0
C5H8O2(71) + S(131) <=> C5H8O4(96) + C5H9O2(92)     0.0006521202000000001 4.81 8490.0
C5H9O2(92) <=> S(147)                               68850.0 1.68 12600.0
C5H8O2(79) + C5H9O2(92) <=> MMA + S(147)            108000000000000.02 -0.75 0.0
C5H8O2(71) + S(147) <=> C5H8O2(79) + C5H9O2(92)     0.0008027940000000001 4.34 2025.0
C5H8O2(71) + C5H9O2(92) <=> C5H9O2(92) + MMA        1686000000000.0002 0.0 0.0
C2H3O2(86) + C3H5(85) <=> MMA                       325000000000000.06 -0.7 0.0
CH3 + CO2 <=> C2H3O2(86)                            21502.420000000002 2.537 23200.0
2 C3H5(85) <=> C#CC(282) + C3H6(184)                8204641.0 1.877 -1115.0
C3H5(85) + H <=> C3H6(184)                          9.284260000000001e+23 -3.05 0.0
C3H5(85) + C5H9O2(94) <=> C3H6(184) + MMA           912000000000000.1 -0.7 0.0
C3H5(85) + C5H9O2(94) <=> C3H6(184) + C5H8O2(79)    0.0019029480000000004 4.458 1733.0
C3H5(85) + S(131) <=> C3H6(184) + C5H8O4(96)        0.0009403421000000002 4.693 3700.0
C3H5(85) + S(147) <=> C3H6(184) + C5H8O2(79)        0.0017393080000000002 4.34 -3150.0
C2H3O2(86) + C3H6(184) <=> C5H9O2(92)               1686.1460000000004 2.526 4699.0
C3H5(85) + C5H9O2(92) <=> C3H6(184) + MMA           843000000000.0001 0.0 0.0
C3H5(85) + C5H9O2(92) <=> C3H6(184) + C5H8O2(71)    0.0004701710000000001 4.693 3700.0
C4H6O(222) <=> C4H6O(182)                           2000000000000.0 0.0 1800.0
S(196) <=> S(521)                                   29465950000.0 0.285 6657.0
S(577) <=> S(521)                                   29017630000000.0 -0.332 8852.0
C4H6O(222) <=> C4H6O(649)                           389800000000.0 0.486 5464.0
S(682) <=> S(521)                                   29017630000000.0 -0.332 8852.0
C4H6O(700) <=> C4H6O(649)                           29017630000000.0 -0.332 8852.0
CH3 + O2 <=> CH3OO(25)                              5.0000000000000004e+22 -3.85 2000.0
C4H6O(699) <=> C4H6O(649)                           29017630000000.0 -0.332 8852.0
C4H6O(649) + CH3 <=> C5H9O(726)                     373000.00000000006 2.53 5000.0
2 CH3 (+M) <=> C2H6(35) (+M)                        950000000000000.1 -0.538 179.0
LOW /1.2690000000000002e+41 -7.0 2762.0/
TROE /0.62 73 1180 1E+30/
C4H6O(222) <=> C4H6O(650)                           1542667000.0 0.311 5969.0
C4H6O(699) <=> C4H6O(650)                           4.854946e+16 -0.885 20898.0
C4H6O(861) <=> C4H6O(650)                           605.0455 2.96 34385.0
C4H6O(88) + O2 <=> S(167)                           4123134.0 1.954 17330.0
C4H6O(861) <=> C4H6O(906)                           499998000000.0 0.056 29257.0
C2H3O2(86) + C3H5(107) <=> C5H8O2(71)               520000000000.00006 0.0 22450.0
C3H5(85) <=> C3H5(107)                              7320000000.0 1.12 41300.0
C2H3O2(86) + C3H5(107) <=> S(520)                   427894000000000.06 -0.514 0.0
C3H5(107) + H <=> C3H6(184)                         58400000000000.01 0.18 124.0
C3H5(107) + C5H9O2(92) <=> C3H6(184) + MMA          1566000000000.0002 0.0 -130.0
C3H5(107) + C5H9O2(94) <=> C3H6(184) + MMA          274800000000000.06 -0.35 -130.0
C3H6(184) + C5H8O2(71) <=> C3H5(107) + C5H9O2(92)   0.0005922702000000001 4.545 4565.0
C3H6(184) + C5H8O4(96) <=> C3H5(107) + S(131)       0.00029613510000000003 4.545 4565.0
C3H5(107) + S(147) <=> C3H6(184) + C5H8O2(79)       0.0037144290000000004 4.34 11480.0
C3H6(184) + C5H8O2(79) <=> C3H5(107) + C5H9O2(94)   0.002030404 4.374 10194.0
C3H5(85) + C3H6(184) <=> C3H5(107) + C3H6(184)      0.003780000000000001 4.34 -200.0
C3H5(107) + C3H5(85) <=> C#CC(282) + C3H6(184)      16409280.000000002 1.877 -1115.0
C3H5(107) + O2 <=> S(1048)                          14528880.000000004 1.598 0.0
C4H6O(159) <=> C4H6O(183)                           194900000000.0 0.486 5464.0
O2 + S(521) <=> S(688)                              1233000000.0000002 1.533 14285.0
CH2O(13) (+M) <=> H + HCO(14) (+M)                  8000000000000000.0 0.0 87726.0
LOW /1.3000000000000002e+36 -5.5 93932.0/
C5H9O2(92) + HCO(14) <=> CH2O(13) + MMA             2847493000000.0005 -0.066 -92.0
C5H9O2(94) + HCO(14) <=> CH2O(13) + MMA             1194573000000000.2 -0.34 0.0
C5H8O2(71) + CH2O(13) <=> C5H9O2(92) + HCO(14)      11000.000000000002 2.81 5860.0
C5H8O4(96) + CH2O(13) <=> HCO(14) + S(131)          5500.000000000001 2.81 5860.0
C5H8O2(79) + CH2O(13) <=> HCO(14) + S(147)          0.018927410000000002 4.126 20293.0
C5H8O2(79) + CH2O(13) <=> C5H9O2(94) + HCO(14)      12.983640000000001 3.38 9040.0
C3H5(85) + CH2O(13) <=> C3H6(184) + HCO(14)         0.09503727000000001 4.052 1497.0
C3H5(85) + HCO(14) <=> C#CC(282) + CH2O(13)         8204641.0 1.877 -1115.0
C3H5(107) + HCO(14) <=> C4H6O(650)                  125730800000000.02 -0.212 0.0
C3H5(107) + CH2O(13) <=> C3H6(184) + HCO(14)        305247.4000000001 1.975 9715.0
C3H5(85) + HCO(14) <=> C4H6O(183)                   248340000000000.03 -0.557 0.0
HCO(14) (+M) <=> CO + H (+M)                        4.93e+16 -0.93 19724.0
LOW /7.430000000000002e+21 -2.36 19383.0/
TROE /0.103 139 10900 4550/
CH4/5.000E+00/ CO/1.500E+00/ CO2/3.000E+00/ H2/2.000E+00/ H2O/1.500E+01/ He/1.300E+00/ O2/1.500E+00/
2 HCO(14) <=> CH2O(13) + CO                         27000000000000.004 0.0 0.0
C3H6(184) + CO <=> C4H6O(649)                       118397.00000000001 2.368 72970.0
C3H6(184) + CO <=> C4H6O(650)                       274200.00000000006 2.53 85500.0
C3H6(184) + CO <=> C4H6O(183)                       59198.48000000001 2.368 72970.0
C5H8O2(71) + HCO(14) <=> C5H9O2(92) + CO            86000000000000.02 0.0 0.0
C5H8O4(96) + HCO(14) <=> CO + S(131)                43000000000000.01 0.0 0.0
C5H8O2(79) + HCO(14) <=> CO + S(147)                46343820000000.01 0.0 0.0
C5H8O2(79) + HCO(14) <=> C5H9O2(94) + CO            10000000000000.002 0.0 0.0
C3H5(85) + HCO(14) <=> C3H6(184) + CO               90330000000000.02 0.0 0.0
C3H5(107) + HCO(14) <=> C3H6(184) + CO              41472880000000.01 0.0 0.0
C3H4(449) <=> C#CC(282)                             7998540000000.0 -0.202 8145.0
H2 + M <=> 2 H + M                                  4.600000000000001e+19 -1.4 104380.0
Ar/0.000E+00/ CO/1.900E+00/ CO2/3.800E+00/ H2/2.500E+00/ H2O/1.200E+01/
H2 + Ar <=> 2 H + Ar                                5.800000000000001e+18 -1.1 104380.0
CH2O(13) (+M) <=> CO + H2 (+M)                      37000000000000.0 0.0 71969.0
LOW /4.4e+38 -6.1 93932.0/
CH2O(13) + H <=> CO + H2 + H                        51100000.00000001 2.182 11524.0
CH2O(13) + H <=> H2 + HCO(14)                       1.3570000000000004e+23 -2.355 17519.0
H + HCO(14) <=> CO + H2                             110000000000000.02 0.0 0.0
C3H5(85) + H <=> C#CC(282) + H2                     678822500.0000001 1.5 -890.0
C5H9O2(94) + H <=> H2 + MMA                         21660000000000.004 0.0 0.0
C5H9O2(94) + H <=> C5H8O2(79) + H2                  54000000000.00001 0.0 1860.0
H + S(131) <=> C5H8O4(96) + H2                      32000000000000.004 0.0 8174.0
H + S(147) <=> C5H8O2(79) + H2                      20800000.000000004 1.84 3030.0
C5H9O2(92) + H <=> H2 + MMA                         95078910000.00002 0.0 0.0
C5H9O2(92) + H <=> C5H8O2(71) + H2                  16000000000000.002 0.0 8174.0
C3H6(184) + H <=> C3H5(107) + H2                    3360.000000000001 3.14 4290.0
C3H6(184) + H <=> C3H5(85) + H2                     409000.0000000001 2.5 9790.0
C4H8(559) + CO2 <=> S(520)                          146.00000000000003 3.13 118000.0
C3H5(107) + CH3 <=> C4H8(559)                       204000000000000.03 -0.32 -130.0
C4H8(588) + CO2 <=> S(577)                          146.00000000000003 3.13 118000.0
C4H8(588) <=> C4H8(559)                             4.854946e+16 -0.885 20898.0
C4H8(672) + CO2 <=> S(521)                          292.00000000000006 3.13 118000.0
C4H8(588) <=> C4H8(672)                             29017630000000.0 -0.332 8852.0
H + O2 (+M) <=> HO2 (+M)                            4700000000000.001 0.44 0.0
LOW /6.366000000000001e+20 -1.72 525.0/
TROE /0.5 1E-30 1E+30/
Ar/6.700E-01/ CO/1.900E+00/ CO2/3.800E+00/ H2/2.000E+00/ H2O/1.400E+01/ O2/7.800E-01/
H + HO2 <=> H2 + O2                                 2800000.0000000005 2.09 -1451.0
CH2O(13) + O2 <=> HCO(14) + HO2                     8070000000000001.0 0.0 53420.0
HCO(14) + O2 <=> CO + HO2                           6900000.000000001 1.9 -1369.0
C3H5(85) + O2 <=> C#CC(282) + HO2                   1.0400000000000002e+16 -1.26 3310.0
C5H9O2(94) + O2 <=> HO2 + MMA                       86760000000000.02 0.0 15990.0
C5H9O2(94) + O2 <=> C5H8O2(79) + HO2                360000.00000000006 2.27 51316.0
S(131) <=> HO2 + MMA                                5200000000.0 1.2 40786.0
C5H8O4(96) + HO2 <=> O2 + S(131)                    0.21000000000000005 3.53 1560.0
C5H8O2(79) + HO2 <=> O2 + S(147)                    0.009463707000000002 4.126 20293.0
C5H9O2(92) + O2 <=> HO2 + MMA                       20000000000.000004 0.0 475.0
C5H8O2(71) + HO2 <=> C5H9O2(92) + O2                6.124646000000002 3.295 9354.0
C3H5(107) + HO2 <=> C3H6(184) + O2                  4.577885000000001 3.622 19032.0
C3H5(85) + HO2 <=> C3H6(184) + O2                   0.04751864000000001 4.052 1497.0
C3H4(281) + H <=> C3H5(85)                          418000000.00000006 1.64 1170.0
C3H5(85) + O2 <=> C3H4(281) + HO2                   43380000000000.01 0.0 15990.0
C3H5(85) + C5H8O2(71) <=> C3H4(281) + C5H9O2(92)    138000000000000.03 -0.35 0.0
C3H5(85) + C5H8O4(96) <=> C3H4(281) + S(131)        69000000000000.016 -0.35 0.0
C3H5(85) + C5H8O2(79) <=> C3H4(281) + S(147)        8580000000000001.0 -1.1 0.0
C3H5(85) + C5H8O2(79) <=> C3H4(281) + C5H9O2(94)    8670000000000.002 0.0 0.0
2 C3H5(85) <=> C3H4(281) + C3H6(184)                456000000000000.06 -0.7 0.0
C3H5(85) + H <=> C3H4(281) + H2                     1082997000000.0002 0.5 -297.0
C3H4(281) + H <=> C3H5(107)                         442000000.00000006 1.64 2820.0
C3H5(107) + O2 <=> C3H4(281) + HO2                  1204400000000.0002 0.0 13550.0
C3H5(107) + C5H8O2(71) <=> C3H4(281) + C5H9O2(92)   1928000000000.0002 0.0 6000.0
C3H5(107) + C5H8O4(96) <=> C3H4(281) + S(131)       964000000000.0001 0.0 6000.0
C3H5(107) + C5H8O2(79) <=> C3H4(281) + S(147)       28900000000000.004 0.0 6000.0
C3H5(107) + C5H8O2(79) <=> C3H4(281) + C5H9O2(94)   285070500000.00006 0.0 6000.0
C3H5(107) + C3H5(85) <=> C3H4(281) + C3H6(184)      2410000000000.0005 0.0 6000.0
DUPLICATE
C3H5(107) + C3H5(85) <=> C3H4(281) + C3H6(184)      137400000000000.03 -0.35 -130.0
DUPLICATE
C3H5(107) + H <=> C3H4(281) + H2                    3010000000000.0005 0.0 6000.0
2 C3H5(107) <=> C3H4(281) + C3H6(184)               168600000000.00003 0.0 6000.0
S(1048) <=> C3H4(281) + HO2                         3630000000.0 1.11 42700.0
C3H5(85) + HCO(14) <=> C3H4(281) + CH2O(13)         543000000000000.1 0.0 0.0
C3H5(107) + HCO(14) <=> C3H4(281) + CH2O(13)        23341170000000.004 0.0 3000.0
C3H5(107) + C3H5(85) <=> C3H4(281) + C3H6(184)      137400000000000.03 -0.35 -130.0
DUPLICATE
C3H5(107) + C3H5(85) <=> C3H4(281) + C3H6(184)      2410000000000.0005 0.0 6000.0
DUPLICATE
CH3 + M <=> CH2(17) + H + M                         2200000000000000.5 0.0 82659.0
CH2(17) + H2 <=> CH3 + H                            440000.00000000006 2.39 7350.0
DUPLICATE
CH2(17) + H2 <=> CH3 + H                            72000000000000.02 0.0 0.0
DUPLICATE
CH2(17) + O2 <=> CO2 + 2 H                          2100000000.0000005 0.993 -269.0
CH2(17) + CO2 <=> CH2O(13) + CO                     100000000000.00002 0.0 1000.0
DUPLICATE
CH2(17) + CO2 <=> CH2O(13) + CO                     11000000000000.002 0.0 0.0
DUPLICATE
C5H9O2(92) + CH2(17) <=> CH3 + MMA                  10000000000.000002 0.0 0.0
C5H9O2(94) + CH2(17) <=> CH3 + MMA                  180600000000000.03 0.0 0.0
CH2(17) + HO2 <=> CH3 + O2                          129807800.00000001 0.805 1370.0
C5H9O2(92) + CH2(17) <=> C5H8O2(71) + CH3           1024527000.0000002 1.436 10759.0
CH2(17) + S(131) <=> C5H8O4(96) + CH3               2049054000.0000005 1.436 10759.0
CH2(17) + S(147) <=> C5H8O2(79) + CH3               319900.0000000001 2.27 -501.0
C5H9O2(94) + CH2(17) <=> C5H8O2(79) + CH3           21000000000000.004 0.0 5305.0
C3H6(184) + CH2(17) <=> C3H5(85) + CH3              60200000000.00001 0.7 27950.0
C3H5(85) + CH2(17) <=> C#CC(282) + CH3              340000000.00000006 1.5 -890.0
C3H6(184) + CH2(17) <=> C3H5(107) + CH3             3701.1990000000005 2.824 6545.0
CH2(17) + CH2O(13) <=> CH3 + HCO(14)                6040000000.000001 0.0 0.0
CH2(17) + HCO(14) <=> CH3 + CO                      30100000000000.004 0.0 0.0
C3H5(85) + CH2(17) <=> C3H4(281) + CH3              90300000000000.02 0.0 0.0
C3H5(107) + CH2(17) <=> C3H4(281) + CH3             63558220000.00001 0.0 0.0
C4H6O(183) + CH3 <=> S(1120)                        373000.00000000006 2.53 5000.0
C4H6O(88) + O2 <=> S(168)                           294756700.0 1.377 18875.0
S(167) <=> S(976)                                   1620000000000.0 -0.305 1980.0
S(168) <=> S(976)                                   1620000000000.0 -0.305 1980.0
S(1703) <=> S(976)                                  3240000000000.0 -0.305 1980.0
CO2 + S(1750) <=> S(1703)                           8040000.000000001 1.68 20084.0
H + S(1779) <=> S(1750)                             822000000.0000001 1.533 1858.0
O2 + S(1750) <=> HO2 + S(1779)                      86760000000000.02 0.0 15990.0
C5H8O2(71) + S(1750) <=> C5H9O2(92) + S(1779)       276000000000000.06 -0.35 0.0
C5H8O4(96) + S(1750) <=> S(131) + S(1779)           138000000000000.03 -0.35 0.0
C5H8O2(79) + S(1750) <=> S(147) + S(1779)           1.7160000000000002e+16 -1.1 0.0
C5H8O2(79) + S(1750) <=> C5H9O2(94) + S(1779)       17340000000000.004 0.0 0.0
C3H5(85) + S(1750) <=> C3H6(184) + S(1779)          912000000000000.1 -0.7 0.0
H + S(1750) <=> H2 + S(1779)                        21660000000000.004 0.0 0.0
C3H5(107) + S(1750) <=> C3H6(184) + S(1779)         274800000000000.06 -0.35 -130.0
HCO(14) + S(1750) <=> CH2O(13) + S(1779)            1194573000000000.2 -0.34 0.0
CH2(17) + S(1750) <=> CH3 + S(1779)                 180600000000000.03 0.0 0.0
O2 + S(1779) <=> S(1811)                            2962760000000.0005 -0.119 0.0
CH3 + HCO(14) <=> CH2CO(26) + H2                    490000000.00000006 0.75 842.0
CH2(17) + CO (+M) <=> CH2CO(26) (+M)                810000000000.0001 0.5 4510.0
LOW /2.6900000000000005e+33 -5.11 7095.0/
TROE /0.5907 275 1230 5180/
Ar/7.000E-01/ H2O/6.000E+00/
CH2CO(26) + H <=> CH3 + CO                          780000000.0000001 1.45 2780.0
S(1779) <=> CH2CO(26) + CH3                         2022000000000.0 0.577 41055.0
2 O + M <=> O2 + M                                  19000000000000.004 0.0 -1788.0
Ar/0.000E+00/ CO/1.900E+00/ CO2/3.800E+00/ H2/2.500E+00/ H2O/1.200E+01/
CO + O (+M) <=> CO2 (+M)                            18000000000.000004 0.0 2384.0
LOW /1.4000000000000004e+24 -2.79 4191.0/
TROE /1 1E-30 1E+30 1E+30/
CO/1.900E+00/ CO2/3.800E+00/ H2/2.500E+00/ H2O/1.200E+01/
CO + O2 <=> CO2 + O                                 4700000000000.001 0.0 60500.0
HCO(14) + O <=> CO2 + H                             30000000000000.004 0.0 0.0
CH3 + O <=> CH2O(13) + H                            69000000000000.016 0.0 0.0
CH3 + O <=> CO + H + H2                             15000000000000.002 0.0 0.0
CH2(17) + O <=> CO + 2 H                            120000000000000.02 0.0 536.0
DUPLICATE
CH2(17) + O <=> CO + 2 H                            30000000000000.004 0.0 0.0
DUPLICATE
CH2(17) + O <=> CO + H2                             80000000000000.02 0.0 536.0
CH2(17) + O2 <=> CH2O(13) + O                       1300000.0000000002 2.42 1604.0
CH2CO(26) + O <=> CH2(17) + CO2                     1800000000000.0002 0.0 1350.0
C3H5(85) + O <=> S(1779)                            9.645294000000003e+20 -5.455 66776.0
H + O2 <=> O + OH                                   100000000000000.02 0.0 15286.0
H2 + O <=> H + OH                                   3800000000000.0005 0.0 7948.0
DUPLICATE
H2 + O <=> H + OH                                   880000000000000.1 0.0 19175.0
DUPLICATE
H + O + M <=> OH + M                                4.700000000000001e+18 -1.0 0.0
Ar/7.500E-01/ CO/1.900E+00/ CO2/3.800E+00/ H2/2.500E+00/ H2O/1.200E+01/
H + HO2 <=> 2 OH                                    71000000000000.02 0.0 295.0
HO2 + O <=> O2 + OH                                 29000000000.000004 1.0 -724.0
CO + OH <=> CO2 + H                                 870000.0000000001 1.73 -685.0
CO + HO2 <=> CO2 + OH                               160000.00000000003 2.18 17943.0
CH2O(13) + O <=> CO + H + OH                        2.5141000000000004e+21 -1.903 22674.0
CH2O(13) + O <=> HCO(14) + OH                       5.634000000000002e+31 -5.189 19968.0
DUPLICATE
CH2O(13) + O <=> HCO(14) + OH                       1358000000000000.2 -0.53 4011.0
DUPLICATE
HCO(14) + O <=> CO + OH                             30000000000000.004 0.0 0.0
HCO(14) + HO2 <=> CO2 + H + OH                      30000000000000.004 0.0 0.0
CH3 + OH <=> CH2O(13) + H2                          3600000000000.0005 -0.532 2042.0
CH3 + O2 <=> CH2O(13) + OH                          190000000000.00003 0.0 9842.0
CH2(17) + OH <=> CH2O(13) + H                       28000000000000.004 0.123 161.0
DUPLICATE
CH2(17) + OH <=> CH2O(13) + H                       30000000000000.004 0.0 0.0
DUPLICATE
CH2CO(26) + OH <=> CH3 + CO2                        670000000000.0001 0.0 -1013.0
O + OH <=> HO2                                      226934900000.00003 0.707 -2134.0
CH2(17) + OH <=> CH3 + O                            971336.0000000002 1.974 3557.0
C3H5(85) + O <=> C3H4(281) + OH                     1500000000.0000002 1.5 -890.0
C3H5(85) + O <=> C#CC(282) + OH                     340000000.00000006 1.5 -890.0
C5H9O2(94) + O <=> MMA + OH                         736070600000.0001 0.75 -445.0
C5H9O2(94) + O <=> C5H8O2(79) + OH                  21000000000000.004 0.0 5305.0
O + S(131) <=> C5H8O4(96) + OH                      18686.890000000003 3.015 5230.0
O + S(147) <=> C5H8O2(79) + OH                      319900.0000000001 2.27 -501.0
C5H9O2(92) + O <=> MMA + OH                         10000000000.000002 0.0 0.0
C5H9O2(92) + O <=> C5H8O2(71) + OH                  9343.447000000002 3.015 5230.0
C3H6(184) + O <=> C3H5(107) + OH                    5.400505000000001 3.558 8898.0
C3H6(184) + O <=> C3H5(85) + OH                     60200000000.00001 0.7 27950.0
C3H5(107) + O <=> C3H4(281) + OH                    1684485000.0000005 0.625 -237.0
O + S(1750) <=> OH + S(1779)                        736070600000.0001 0.75 -445.0
H2 + OH <=> H + H2O                                 220000000.00000003 1.51 3430.0
2 OH <=> H2O + O                                    20150000.000000004 1.651 631.0
DUPLICATE
2 OH <=> H2O + O                                    259500000000.00003 -0.057 -827.0
DUPLICATE
H2O + M <=> H + OH + M                              6.100000000000001e+27 -3.322 120790.0
CO/1.900E+00/ CO2/3.800E+00/ H2/3.000E+00/ H2O/0.000E+00/ O2/1.500E+00/
H2O + H2O <=> H + OH + H2O                          1e+26 -2.44 120180.0
H + HO2 <=> H2O + O                                 1400000000000.0002 0.0 0.0
HO2 + OH <=> H2O + O2                               1.9000000000000003e+20 -2.49 584.0
DUPLICATE
HO2 + OH <=> H2O + O2                               1200000000.0000002 1.24 -1310.0
DUPLICATE
CH2O(13) + OH <=> CO + H + H2O                      72400000000.00002 0.892 9310.0
CH2O(13) + OH <=> H2O + HCO(14)                     1854000000.0000002 1.256 -302.0
HCO(14) + OH <=> CO + H2O                           110000000000000.02 0.0 0.0
CH3 + OH <=> CH2(17) + H2O                          43000.00000000001 2.568 3997.0
C3H5(85) + OH <=> C3H4(281) + H2O                   27943510000.000008 1.0 -595.0
C3H5(85) + OH <=> C#CC(282) + H2O                   3394113.0000000005 2.0 -1190.0
C5H9O2(94) + OH <=> H2O + MMA                       144600000000000.03 0.0 0.0
C5H9O2(94) + OH <=> C5H8O2(79) + H2O                150000000.00000003 1.443 113.0
OH + S(131) <=> C5H8O4(96) + H2O                    2.700000000000001 3.81 -2897.0
OH + S(147) <=> C5H8O2(79) + H2O                    4920.000000000001 2.7 -4033.0
C5H9O2(92) + OH <=> H2O + MMA                       12100000000000.002 0.0 0.0
C5H9O2(92) + OH <=> C5H8O2(71) + H2O                1.3500000000000005 3.81 -2897.0
C3H6(184) + OH <=> C3H5(107) + H2O                  0.38786750000000003 3.98 2257.0
C3H6(184) + OH <=> C3H5(85) + H2O                   1110000.0 2.0 26220.0
C3H5(107) + OH <=> C3H4(281) + H2O                  6030000000000.001 0.0 6000.0
OH + S(1750) <=> H2O + S(1779)                      144600000000000.03 0.0 0.0
C3H7(597) + HCO(14) <=> C3H6(184) + CH2O(13)        1194573000000000.2 -0.34 0.0
C3H7(597) + CH2(17) <=> C3H6(184) + CH3             180600000000000.03 0.0 0.0
C3H6(184) + H <=> C3H7(597)                         1840000000.0000002 1.553 1570.0
C3H7(597) + C5H8O2(79) <=> C3H6(184) + C5H9O2(94)   17340000000000.004 0.0 0.0
C3H7(597) + C5H8O4(96) <=> C3H6(184) + S(131)       138000000000000.03 -0.35 0.0
C3H7(597) + C5H8O2(79) <=> C3H6(184) + S(147)       1.7160000000000002e+16 -1.1 0.0
C3H7(597) + C5H8O2(71) <=> C3H6(184) + C5H9O2(92)   276000000000000.06 -0.35 0.0
C3H5(107) + C3H7(597) <=> 2 C3H6(184)               274800000000000.06 -0.35 -130.0
C3H5(85) + C3H7(597) <=> 2 C3H6(184)                912000000000000.1 -0.7 0.0
C3H7(597) + H <=> C3H6(184) + H2                    21660000000000.004 0.0 0.0
C3H7(597) + O2 <=> C3H6(184) + HO2                  86760000000000.02 0.0 15990.0
C3H7(597) + O <=> C3H6(184) + OH                    736070600000.0001 0.75 -445.0
C3H7(597) + OH <=> C3H6(184) + H2O                  144600000000000.03 0.0 0.0
C3H6(626) <=> C3H6(184)                             3687881000000000.0 -1.078 13587.0
C3H6(626) + CO <=> C4H6O(699)                       548400.0000000001 2.53 85500.0
C3H3(447) + H <=> C#CC(282)                         63980000000000.01 0.102 -31.0
C3H3(447) + C5H9O2(92) <=> C#CC(282) + MMA          541837200000.0001 0.0 -43.0
C3H3(447) + C5H9O2(94) <=> C#CC(282) + MMA          69019470000000.016 -0.233 -43.0
C3H3(447) + HO2 <=> C#CC(282) + O2                  0.06774283000000002 4.024 17816.0
C#CC(282) + C5H8O2(71) <=> C3H3(447) + C5H9O2(92)   0.005418000000000001 4.34 5500.0
C#CC(282) + C5H8O4(96) <=> C3H3(447) + S(131)       0.0027090000000000005 4.34 5500.0
C3H3(447) + S(147) <=> C#CC(282) + C5H8O2(79)       0.0012889670000000002 4.34 8705.0
C#CC(282) + C5H8O2(79) <=> C3H3(447) + C5H9O2(94)   0.009283464000000002 4.34 11333.0
C#CC(282) + C3H5(85) <=> C3H3(447) + C3H6(184)      0.011730000000000003 4.34 400.0
C3H3(447) + H2 <=> C#CC(282) + H                    3.0560000000000005 3.503 15305.0
C3H3(447) + C3H5(85) <=> 2 C#CC(282)                8204641.0 1.877 -1115.0
C3H3(447) + C3H7(597) <=> C#CC(282) + C3H6(184)     69019470000000.016 -0.233 -43.0
C3H3(447) + C3H6(184) <=> C#CC(282) + C3H5(107)     0.0022170000000000002 4.34 9800.0
C3H3(447) + CH2O(13) <=> C#CC(282) + HCO(14)        12.983640000000001 3.38 9040.0
C3H3(447) + HCO(14) <=> C#CC(282) + CO              20736440000000.004 0.0 0.0
C3H3(447) + H <=> C3H4(281)                         20480000000000.004 0.206 -173.0
C3H3(447) + C5H9O2(92) <=> C3H4(281) + MMA          843000000000.0001 0.0 0.0
C3H3(447) + C5H9O2(94) <=> C3H4(281) + MMA          912000000000000.1 -0.7 0.0
C3H3(447) + HO2 <=> C3H4(281) + O2                  0.020516840000000005 4.261 19764.0
C3H4(281) + C5H8O2(71) <=> C3H3(447) + C5H9O2(92)   0.04360000000000001 4.34 5900.0
C3H4(281) + C5H8O4(96) <=> C3H3(447) + S(131)       0.021800000000000003 4.34 5900.0
C3H4(281) + C5H8O2(79) <=> C3H3(447) + S(147)       0.009591371 4.34 13650.0
C3H4(281) + C5H8O2(79) <=> C3H3(447) + C5H9O2(94)   0.06081665000000001 4.34 11183.0
C3H3(447) + C3H6(184) <=> C3H4(281) + C3H5(85)      0.023000000000000003 4.34 22330.0
C3H3(447) + H2 <=> C3H4(281) + H                    0.07496000000000001 3.944 17851.0
C3H3(447) + C3H5(85) <=> C#CC(282) + C3H4(281)      34509740000000.008 -0.233 -43.0
DUPLICATE
C3H3(447) + C3H5(107) <=> C#CC(282) + C3H4(281)     285070500000.00006 0.0 6000.0
C3H3(447) + C3H5(85) <=> C#CC(282) + C3H4(281)      8204641.0 1.877 -1115.0
DUPLICATE
C3H3(447) + C3H7(597) <=> C3H4(281) + C3H6(184)     912000000000000.1 -0.7 0.0
C3H3(447) + C3H6(184) <=> C3H4(281) + C3H5(107)     0.004920000000000001 4.34 10900.0
C3H4(281) + HCO(14) <=> C3H3(447) + CH2O(13)        17.104520000000004 3.738 6479.0
C3H3(447) + HCO(14) <=> C3H4(281) + CO              90330000000000.02 0.0 0.0
C3H3(447) + C3H5(85) <=> 2 C3H4(281)                456000000000000.06 -0.7 0.0
C3H3(447) + C3H5(107) <=> 2 C3H4(281)               2410000000000.0005 0.0 6000.0
C#CC(282) + CH2(17) <=> C3H3(447) + CH3             0.007880000000000003 4.293 11251.0
C3H4(281) + CH2(17) <=> C3H3(447) + CH3             17.104520000000004 3.738 6479.0
C3H3(447) + S(1750) <=> C#CC(282) + S(1779)         69019470000000.016 -0.233 -43.0
C3H3(447) + S(1750) <=> C3H4(281) + S(1779)         912000000000000.1 -0.7 0.0
C#CC(282) + O <=> C3H3(447) + OH                    0.007880000000000003 4.293 11251.0
C3H4(281) + O <=> C3H3(447) + OH                    300243.70000000007 2.47 16950.0
C#CC(282) + OH <=> C3H3(447) + H2O                  12560.000000000002 2.794 153.0
C3H4(281) + OH <=> C3H3(447) + H2O                  33830.00000000001 2.802 933.0