! generator: yaml2ck
! cantera-version: 3.0.0
! date: Tue, 05 Mar 2024 15:45:17 -0800
! input-files: ['gri30.yml']
!
! GRI-Mech Version 3.0 7/30/99  CHEMKIN-II format See README30 file at anonymous FTP site unix.sri.com, directory gri;
! WorldWideWeb home page http://www.me.berkeley.edu/gri_mech/ or through http://www.gri.org , under 'Basic  Research',
! for additional information, contacts, and disclaimer  Updated webpage at
! http://combustion.berkeley.edu/gri-mech/version30/text30.html

ELEM
O H C N Ar
END

SPECIES
H2  H  O  O2  OH  H2O  HO2  H2O2  C  CH  CH2  CH2(S)  CH3  CH4  CO  CO2  HCO
CH2O  CH2OH  CH3O  CH3OH  C2H  C2H2  C2H3  C2H4  C2H5  C2H6  HCCO  CH2CO  HCCOH
N  NH  NH2  NH3  NNH  NO  NO2  N2O  HNO  CN  HCN  H2CN  HCNN  HCNO  HOCN  HNCO
NCO  AR  C3H7  C3H8  CH2CHO  CH3CHO  N2
END

REACTIONS CAL/MOLE MOLE
2 O + M <=> O2 + M               1.2000000000000002e+17 -1.0 0.0
AR/8.300E-01/ C2H6/3.000E+00/ CH4/2.000E+00/ CO/1.750E+00/ CO2/3.600E+00/ H2/2.400E+00/ H2O/1.540E+01/
H + O + M <=> OH + M             5.000000000000001e+17 -1.0 0.0
AR/7.000E-01/ C2H6/3.000E+00/ CH4/2.000E+00/ CO/1.500E+00/ CO2/2.000E+00/ H2/2.000E+00/ H2O/6.000E+00/
H2 + O <=> H + OH                38700.0 2.7 6260.0
HO2 + O <=> O2 + OH              20000000000000.004 0.0 0.0
H2O2 + O <=> HO2 + OH            9630000.0 2.0 4000.0
CH + O <=> CO + H                57000000000000.01 0.0 0.0
CH2 + O <=> H + HCO              80000000000000.02 0.0 0.0
CH2(S) + O <=> CO + H2           15000000000000.002 0.0 0.0
CH2(S) + O <=> H + HCO           15000000000000.002 0.0 0.0
CH3 + O <=> CH2O + H             50600000000000.01 0.0 0.0
CH4 + O <=> CH3 + OH             1020000000.0000001 1.5 8600.0
CO + O (+M) <=> CO2 (+M)         18000000000.000004 0.0 2385.0
LOW /602000000000000.1 0.0 3000.0/
AR/5.000E-01/ C2H6/3.000E+00/ CH4/2.000E+00/ CO/1.500E+00/ CO2/3.500E+00/ H2/2.000E+00/ H2O/6.000E+00/ O2/6.000E+00/
HCO + O <=> CO + OH              30000000000000.004 0.0 0.0
HCO + O <=> CO2 + H              30000000000000.004 0.0 0.0
CH2O + O <=> HCO + OH            39000000000000.01 0.0 3540.0
CH2OH + O <=> CH2O + OH          10000000000000.002 0.0 0.0
CH3O + O <=> CH2O + OH           10000000000000.002 0.0 0.0
CH3OH + O <=> CH2OH + OH         388000.00000000006 2.5 3100.0
CH3OH + O <=> CH3O + OH          130000.00000000003 2.5 5000.0
C2H + O <=> CH + CO              50000000000000.01 0.0 0.0
C2H2 + O <=> H + HCCO            13500000.000000002 2.0 1900.0
C2H2 + O <=> C2H + OH            4.600000000000001e+19 -1.41 28950.0
C2H2 + O <=> CH2 + CO            6940000.000000001 2.0 1900.0
C2H3 + O <=> CH2CO + H           30000000000000.004 0.0 0.0
C2H4 + O <=> CH3 + HCO           12500000.000000002 1.83 220.0
C2H5 + O <=> CH2O + CH3          22400000000000.004 0.0 0.0
C2H6 + O <=> C2H5 + OH           89800000.00000001 1.92 5690.0
HCCO + O <=> 2 CO + H            100000000000000.02 0.0 0.0
CH2CO + O <=> HCCO + OH          10000000000000.002 0.0 8000.0
CH2CO + O <=> CH2 + CO2          1750000000000.0002 0.0 1350.0
CO + O2 <=> CO2 + O              2500000000000.0005 0.0 47800.0
CH2O + O2 <=> HCO + HO2          100000000000000.02 0.0 40000.0
H + O2 + M <=> HO2 + M           2.8000000000000005e+18 -0.86 0.0
AR/0.000E+00/ C2H6/1.500E+00/ CO/7.500E-01/ CO2/1.500E+00/ H2O/0.000E+00/ N2/0.000E+00/ O2/0.000E+00/
H + O2 + O2 <=> HO2 + O2         2.0800000000000004e+19 -1.24 0.0
H + O2 + H2O <=> HO2 + H2O       1.1260000000000002e+19 -0.76 0.0
H + O2 + N2 <=> HO2 + N2         2.6000000000000004e+19 -1.24 0.0
H + O2 + AR <=> HO2 + AR         7.000000000000001e+17 -0.8 0.0
H + O2 <=> O + OH                2.6500000000000004e+16 -0.6707 17041.0
2 H + M <=> H2 + M               1.0000000000000003e+18 -1.0 0.0
AR/6.300E-01/ C2H6/3.000E+00/ CH4/2.000E+00/ CO2/0.000E+00/ H2/0.000E+00/ H2O/0.000E+00/
2 H + H2 <=> H2 + H2             9.000000000000002e+16 -0.6 0.0
2 H + H2O <=> H2 + H2O           6.000000000000001e+19 -1.25 0.0
2 H + CO2 <=> H2 + CO2           5.500000000000001e+20 -2.0 0.0
H + OH + M <=> H2O + M           2.2000000000000004e+22 -2.0 0.0
AR/3.800E-01/ C2H6/3.000E+00/ CH4/2.000E+00/ H2/7.300E-01/ H2O/3.650E+00/
H + HO2 <=> H2O + O              3970000000000.0005 0.0 671.0
H + HO2 <=> H2 + O2              44800000000000.01 0.0 1068.0
H + HO2 <=> 2 OH                 84000000000000.02 0.0 635.0
H + H2O2 <=> H2 + HO2            12100000.000000002 2.0 5200.0
H + H2O2 <=> H2O + OH            10000000000000.002 0.0 3600.0
CH + H <=> C + H2                165000000000000.03 0.0 0.0
CH2 + H (+M) <=> CH3 (+M)        600000000000000.1 0.0 0.0
LOW /1.0400000000000001e+26 -2.76 1600.0/
TROE /0.562 91 5836 8552/
AR/7.000E-01/ C2H6/3.000E+00/ CH4/2.000E+00/ CO/1.500E+00/ CO2/2.000E+00/ H2/2.000E+00/ H2O/6.000E+00/
CH2(S) + H <=> CH + H2           30000000000000.004 0.0 0.0
CH3 + H (+M) <=> CH4 (+M)        1.3900000000000002e+16 -0.534 536.0
LOW /2.620000000000001e+33 -4.76 2440.0/
TROE /0.783 74 2941 6964/
AR/7.000E-01/ C2H6/3.000E+00/ CH4/3.000E+00/ CO/1.500E+00/ CO2/2.000E+00/ H2/2.000E+00/ H2O/6.000E+00/
CH4 + H <=> CH3 + H2             660000000.0000001 1.62 10840.0
H + HCO (+M) <=> CH2O (+M)       1090000000000.0002 0.48 -260.0
LOW /2.4700000000000006e+24 -2.57 425.0/
TROE /0.7824 271 2755 6570/
AR/7.000E-01/ C2H6/3.000E+00/ CH4/2.000E+00/ CO/1.500E+00/ CO2/2.000E+00/ H2/2.000E+00/ H2O/6.000E+00/
H + HCO <=> CO + H2              73400000000000.02 0.0 0.0
CH2O + H (+M) <=> CH2OH (+M)     540000000000.0001 0.454 3600.0
LOW /1.2700000000000002e+32 -4.82 6530.0/
TROE /0.7187 103 1291 4160/
C2H6/3.000E+00/ CH4/2.000E+00/ CO/1.500E+00/ CO2/2.000E+00/ H2/2.000E+00/ H2O/6.000E+00/
CH2O + H (+M) <=> CH3O (+M)      540000000000.0001 0.454 2600.0
LOW /2.2000000000000006e+30 -4.8 5560.0/
TROE /0.758 94 1555 4200/
C2H6/3.000E+00/ CH4/2.000E+00/ CO/1.500E+00/ CO2/2.000E+00/ H2/2.000E+00/ H2O/6.000E+00/
CH2O + H <=> H2 + HCO            57400000.000000015 1.9 2742.0
CH2OH + H (+M) <=> CH3OH (+M)    1055000000000.0002 0.5 86.0
LOW /4.360000000000001e+31 -4.65 5080.0/
TROE /0.6 100 90000 10000/
C2H6/3.000E+00/ CH4/2.000E+00/ CO/1.500E+00/ CO2/2.000E+00/ H2/2.000E+00/ H2O/6.000E+00/
CH2OH + H <=> CH2O + H2          20000000000000.004 0.0 0.0
CH2OH + H <=> CH3 + OH           165000000000.00003 0.65 -284.0
CH2OH + H <=> CH2(S) + H2O       32800000000000.004 -0.09 610.0
CH3O + H (+M) <=> CH3OH (+M)     2430000000000.0005 0.515 50.0
LOW /4.660000000000001e+41 -7.44 14080.0/
TROE /0.7 100 90000 10000/
C2H6/3.000E+00/ CH4/2.000E+00/ CO/1.500E+00/ CO2/2.000E+00/ H2/2.000E+00/ H2O/6.000E+00/
CH3O + H <=> CH2OH + H           41500000.00000001 1.63 1924.0
CH3O + H <=> CH2O + H2           20000000000000.004 0.0 0.0
CH3O + H <=> CH3 + OH            1500000000000.0002 0.5 -110.0
CH3O + H <=> CH2(S) + H2O        262000000000000.03 -0.23 1070.0
CH3OH + H <=> CH2OH + H2         17000000.000000004 2.1 4870.0
CH3OH + H <=> CH3O + H2          4200000.000000001 2.1 4870.0
C2H + H (+M) <=> C2H2 (+M)       1.0000000000000002e+17 -1.0 0.0
LOW /3.7500000000000014e+33 -4.8 1900.0/
TROE /0.6464 132 1315 5566/
AR/7.000E-01/ C2H6/3.000E+00/ CH4/2.000E+00/ CO/1.500E+00/ CO2/2.000E+00/ H2/2.000E+00/ H2O/6.000E+00/
C2H2 + H (+M) <=> C2H3 (+M)      5600000000000.001 0.0 2400.0
LOW /3.8000000000000005e+40 -7.27 7220.0/
TROE /0.7507 98.5 1302 4167/
AR/7.000E-01/ C2H6/3.000E+00/ CH4/2.000E+00/ CO/1.500E+00/ CO2/2.000E+00/ H2/2.000E+00/ H2O/6.000E+00/
C2H3 + H (+M) <=> C2H4 (+M)      6080000000000.001 0.27 280.0
LOW /1.4000000000000005e+30 -3.86 3320.0/
TROE /0.782 207.5 2663 6095/
AR/7.000E-01/ C2H6/3.000E+00/ CH4/2.000E+00/ CO/1.500E+00/ CO2/2.000E+00/ H2/2.000E+00/ H2O/6.000E+00/
C2H3 + H <=> C2H2 + H2           30000000000000.004 0.0 0.0
C2H4 + H (+M) <=> C2H5 (+M)      540000000000.0001 0.454 1820.0
LOW /6.0000000000000004e+41 -7.62 6970.0/
TROE /0.9753 210 984 4374/
AR/7.000E-01/ C2H6/3.000E+00/ CH4/2.000E+00/ CO/1.500E+00/ CO2/2.000E+00/ H2/2.000E+00/ H2O/6.000E+00/
C2H4 + H <=> C2H3 + H2           1325000.0000000002 2.53 12240.0
C2H5 + H (+M) <=> C2H6 (+M)      5.2100000000000006e+17 -0.99 1580.0
LOW /1.9900000000000004e+41 -7.08 6685.0/
TROE /0.8422 125 2219 6882/
AR/7.000E-01/ C2H6/3.000E+00/ CH4/2.000E+00/ CO/1.500E+00/ CO2/2.000E+00/ H2/2.000E+00/ H2O/6.000E+00/
C2H5 + H <=> C2H4 + H2           2000000000000.0002 0.0 0.0
C2H6 + H <=> C2H5 + H2           115000000.00000001 1.9 7530.0
H + HCCO <=> CH2(S) + CO         100000000000000.02 0.0 0.0
CH2CO + H <=> H2 + HCCO          50000000000000.01 0.0 8000.0
CH2CO + H <=> CH3 + CO           11300000000000.002 0.0 3428.0
H + HCCOH <=> CH2CO + H          10000000000000.002 0.0 0.0
CO + H2 (+M) <=> CH2O (+M)       43000000.00000001 1.5 79600.0
LOW /5.070000000000001e+27 -3.42 84350.0/
TROE /0.932 197 1540 10300/
AR/7.000E-01/ C2H6/3.000E+00/ CH4/2.000E+00/ CO/1.500E+00/ CO2/2.000E+00/ H2/2.000E+00/ H2O/6.000E+00/
H2 + OH <=> H + H2O              216000000.00000003 1.51 3430.0
2 OH (+M) <=> H2O2 (+M)          74000000000000.02 -0.37 0.0
LOW /2.3000000000000005e+18 -0.9 -1700.0/
TROE /0.7346 94 1756 5182/
AR/7.000E-01/ C2H6/3.000E+00/ CH4/2.000E+00/ CO/1.500E+00/ CO2/2.000E+00/ H2/2.000E+00/ H2O/6.000E+00/
2 OH <=> H2O + O                 35700.0 2.4 -2110.0
HO2 + OH <=> H2O + O2            14500000000000.002 0.0 -500.0
DUPLICATE
H2O2 + OH <=> H2O + HO2          2000000000000.0002 0.0 427.0
DUPLICATE
H2O2 + OH <=> H2O + HO2          1.7000000000000003e+18 0.0 29410.000000000004
DUPLICATE
C + OH <=> CO + H                50000000000000.01 0.0 0.0
CH + OH <=> H + HCO              30000000000000.004 0.0 0.0
CH2 + OH <=> CH2O + H            20000000000000.004 0.0 0.0
CH2 + OH <=> CH + H2O            11300000.000000002 2.0 3000.0
CH2(S) + OH <=> CH2O + H         30000000000000.004 0.0 0.0
CH3 + OH (+M) <=> CH3OH (+M)     2.7900000000000005e+18 -1.43 1330.0
LOW /4.0000000000000014e+36 -5.92 3140.0/
TROE /0.412 195 5900 6394/
C2H6/3.000E+00/ CH4/2.000E+00/ CO/1.500E+00/ CO2/2.000E+00/ H2/2.000E+00/ H2O/6.000E+00/
CH3 + OH <=> CH2 + H2O           56000000.00000001 1.6 5420.0
CH3 + OH <=> CH2(S) + H2O        6.440000000000001e+17 -1.34 1417.0
CH4 + OH <=> CH3 + H2O           100000000.00000001 1.6 3120.0
CO + OH <=> CO2 + H              47600000.00000001 1.228 70.0
HCO + OH <=> CO + H2O            50000000000000.01 0.0 0.0
CH2O + OH <=> H2O + HCO          3430000000.0000005 1.18 -447.0
CH2OH + OH <=> CH2O + H2O        5000000000000.001 0.0 0.0
CH3O + OH <=> CH2O + H2O         5000000000000.001 0.0 0.0
CH3OH + OH <=> CH2OH + H2O       1440000.0000000002 2.0 -840.0
CH3OH + OH <=> CH3O + H2O        6300000.000000001 2.0 1500.0
C2H + OH <=> H + HCCO            20000000000000.004 0.0 0.0
C2H2 + OH <=> CH2CO + H          0.00021800000000000004 4.5 -1000.0
C2H2 + OH <=> H + HCCOH          504000.0000000001 2.3 13500.0
C2H2 + OH <=> C2H + H2O          33700000.0 2.0 14000.0
C2H2 + OH <=> CH3 + CO           0.0004830000000000001 4.0 -2000.0
C2H3 + OH <=> C2H2 + H2O         5000000000000.001 0.0 0.0
C2H4 + OH <=> C2H3 + H2O         3600000.0000000005 2.0 2500.0
C2H6 + OH <=> C2H5 + H2O         3540000.0000000005 2.12 870.0
CH2CO + OH <=> H2O + HCCO        7500000000000.001 0.0 2000.0
2 HO2 <=> H2O2 + O2              130000000000.00002 0.0 -1630.0
DUPLICATE
2 HO2 <=> H2O2 + O2              420000000000000.06 0.0 12000.0
DUPLICATE
CH2 + HO2 <=> CH2O + OH          20000000000000.004 0.0 0.0
CH3 + HO2 <=> CH4 + O2           1000000000000.0001 0.0 0.0
CH3 + HO2 <=> CH3O + OH          37800000000000.01 0.0 0.0
CO + HO2 <=> CO2 + OH            150000000000000.03 0.0 23600.0
CH2O + HO2 <=> H2O2 + HCO        5600000.000000001 2.0 12000.0
C + O2 <=> CO + O                58000000000000.01 0.0 576.0
C + CH2 <=> C2H + H              50000000000000.01 0.0 0.0
C + CH3 <=> C2H2 + H             50000000000000.01 0.0 0.0
CH + O2 <=> HCO + O              67100000000000.01 0.0 0.0
CH + H2 <=> CH2 + H              108000000000000.02 0.0 3110.0
CH + H2O <=> CH2O + H            5710000000000.001 0.0 -755.0
CH + CH2 <=> C2H2 + H            40000000000000.01 0.0 0.0
CH + CH3 <=> C2H3 + H            30000000000000.004 0.0 0.0
CH + CH4 <=> C2H4 + H            60000000000000.01 0.0 0.0
CH + CO (+M) <=> HCCO (+M)       50000000000000.01 0.0 0.0
LOW /2.6900000000000003e+28 -3.74 1936.0/
TROE /0.5757 237 1652 5069/
AR/7.000E-01/ C2H6/3.000E+00/ CH4/2.000E+00/ CO/1.500E+00/ CO2/2.000E+00/ H2/2.000E+00/ H2O/6.000E+00/
CH + CO2 <=> CO + HCO            190000000000000.03 0.0 15792.0
CH + CH2O <=> CH2CO + H          94600000000000.02 0.0 -515.0
CH + HCCO <=> C2H2 + CO          50000000000000.01 0.0 0.0
CH2 + O2 => CO + H + OH          5000000000000.001 0.0 1500.0
CH2 + H2 <=> CH3 + H             500000.0000000001 2.0 7230.0
2 CH2 <=> C2H2 + H2              1600000000000000.2 0.0 11944.0
CH2 + CH3 <=> C2H4 + H           40000000000000.01 0.0 0.0
CH2 + CH4 <=> 2 CH3              2460000.0000000005 2.0 8270.0
CH2 + CO (+M) <=> CH2CO (+M)     810000000000.0001 0.5 4510.0
LOW /2.6900000000000005e+33 -5.11 7095.0/
TROE /0.5907 275 1226 5185/
AR/7.000E-01/ C2H6/3.000E+00/ CH4/2.000E+00/ CO/1.500E+00/ CO2/2.000E+00/ H2/2.000E+00/ H2O/6.000E+00/
CH2 + HCCO <=> C2H3 + CO         30000000000000.004 0.0 0.0
CH2(S) + N2 <=> CH2 + N2         15000000000000.002 0.0 600.0
AR + CH2(S) <=> AR + CH2         9000000000000.002 0.0 600.0
CH2(S) + O2 <=> CO + H + OH      28000000000000.004 0.0 0.0
CH2(S) + O2 <=> CO + H2O         12000000000000.002 0.0 0.0
CH2(S) + H2 <=> CH3 + H          70000000000000.016 0.0 0.0
CH2(S) + H2O (+M) <=> CH3OH (+M) 4.8200000000000006e+17 -1.16 1145.0
LOW /1.8800000000000002e+38 -6.36 5040.0/
TROE /0.6027 208 3922 10180/
C2H6/3.000E+00/ CH4/2.000E+00/ CO/1.500E+00/ CO2/2.000E+00/ H2/2.000E+00/ H2O/6.000E+00/
CH2(S) + H2O <=> CH2 + H2O       30000000000000.004 0.0 0.0
CH2(S) + CH3 <=> C2H4 + H        12000000000000.002 0.0 -570.0
CH2(S) + CH4 <=> 2 CH3           16000000000000.002 0.0 -570.0
CH2(S) + CO <=> CH2 + CO         9000000000000.002 0.0 0.0
CH2(S) + CO2 <=> CH2 + CO2       7000000000000.001 0.0 0.0
CH2(S) + CO2 <=> CH2O + CO       14000000000000.002 0.0 0.0
C2H6 + CH2(S) <=> C2H5 + CH3     40000000000000.01 0.0 -550.0
CH3 + O2 <=> CH3O + O            35600000000000.01 0.0 30480.0
CH3 + O2 <=> CH2O + OH           2310000000000.0005 0.0 20315.0
CH3 + H2O2 <=> CH4 + HO2         24500.000000000004 2.47 5180.0
2 CH3 (+M) <=> C2H6 (+M)         6.770000000000001e+16 -1.18 654.0
LOW /3.4000000000000008e+41 -7.03 2762.0/
TROE /0.619 73.2 1180 9999/
AR/7.000E-01/ C2H6/3.000E+00/ CH4/2.000E+00/ CO/1.500E+00/ CO2/2.000E+00/ H2/2.000E+00/ H2O/6.000E+00/
2 CH3 <=> C2H5 + H               6840000000000.001 0.1 10600.0
CH3 + HCO <=> CH4 + CO           26480000000000.004 0.0 0.0
CH2O + CH3 <=> CH4 + HCO         3320.0000000000005 2.81 5860.0
CH3 + CH3OH <=> CH2OH + CH4      30000000.000000004 1.5 9940.0
CH3 + CH3OH <=> CH3O + CH4       10000000.000000002 1.5 9940.0
C2H4 + CH3 <=> C2H3 + CH4        227000.00000000003 2.0 9200.0
C2H6 + CH3 <=> C2H5 + CH4        6140000.000000002 1.74 10450.0
HCO + H2O <=> CO + H + H2O       1.5000000000000003e+18 -1.0 17000.0
HCO + M <=> CO + H + M           1.8700000000000003e+17 -1.0 17000.0
C2H6/3.000E+00/ CH4/2.000E+00/ CO/1.500E+00/ CO2/2.000E+00/ H2/2.000E+00/ H2O/0.000E+00/
HCO + O2 <=> CO + HO2            13450000000000.002 0.0 400.0
CH2OH + O2 <=> CH2O + HO2        18000000000000.004 0.0 900.0
CH3O + O2 <=> CH2O + HO2         4.2800000000000004e-13 7.6 -3530.0
C2H + O2 <=> CO + HCO            10000000000000.002 0.0 -755.0
C2H + H2 <=> C2H2 + H            56800000000.00001 0.9 1993.0
C2H3 + O2 <=> CH2O + HCO         4.580000000000001e+16 -1.39 1015.0
C2H4 (+M) <=> C2H2 + H2 (+M)     8000000000000.0 0.44 86770.0
LOW /1.5800000000000005e+51 -9.3 97800.0/
TROE /0.7345 180 1035 5417/
AR/7.000E-01/ C2H6/3.000E+00/ CH4/2.000E+00/ CO/1.500E+00/ CO2/2.000E+00/ H2/2.000E+00/ H2O/6.000E+00/
C2H5 + O2 <=> C2H4 + HO2         840000000000.0001 0.0 3875.0
HCCO + O2 <=> 2 CO + OH          3200000000000.0005 0.0 854.0
2 HCCO <=> C2H2 + 2 CO           10000000000000.002 0.0 0.0
N + NO <=> N2 + O                27000000000000.004 0.0 355.0
N + O2 <=> NO + O                9000000000.000002 1.0 6500.0
N + OH <=> H + NO                33600000000000.008 0.0 385.0
N2O + O <=> N2 + O2              1400000000000.0002 0.0 10810.0
N2O + O <=> 2 NO                 29000000000000.004 0.0 23150.0
H + N2O <=> N2 + OH              387000000000000.06 0.0 18880.0
N2O + OH <=> HO2 + N2            2000000000000.0002 0.0 21060.0
N2O (+M) <=> N2 + O (+M)         79100000000.0 0.0 56020.0
LOW /637000000000000.1 0.0 56640.0/
AR/6.250E-01/ C2H6/3.000E+00/ CH4/2.000E+00/ CO/1.500E+00/ CO2/2.000E+00/ H2/2.000E+00/ H2O/6.000E+00/
HO2 + NO <=> NO2 + OH            2110000000000.0005 0.0 -480.0
NO + O + M <=> NO2 + M           1.0600000000000002e+20 -1.41 0.0
AR/7.000E-01/ C2H6/3.000E+00/ CH4/2.000E+00/ CO/1.500E+00/ CO2/2.000E+00/ H2/2.000E+00/ H2O/6.000E+00/
NO2 + O <=> NO + O2              3900000000000.0005 0.0 -240.0
H + NO2 <=> NO + OH              132000000000000.02 0.0 360.0
NH + O <=> H + NO                40000000000000.01 0.0 0.0
H + NH <=> H2 + N                32000000000000.004 0.0 330.0
NH + OH <=> H + HNO              20000000000000.004 0.0 0.0
NH + OH <=> H2O + N              2000000000.0000002 1.2 0.0
NH + O2 <=> HNO + O              461000.00000000006 2.0 6500.0
NH + O2 <=> NO + OH              1280000.0000000002 1.5 100.0
N + NH <=> H + N2                15000000000000.002 0.0 0.0
H2O + NH <=> H2 + HNO            20000000000000.004 0.0 13850.0
NH + NO <=> N2 + OH              21600000000000.004 -0.23 0.0
NH + NO <=> H + N2O              365000000000000.06 -0.45 0.0
NH2 + O <=> NH + OH              3000000000000.0005 0.0 0.0
NH2 + O <=> H + HNO              39000000000000.01 0.0 0.0
H + NH2 <=> H2 + NH              40000000000000.01 0.0 3650.0
NH2 + OH <=> H2O + NH            90000000.00000001 1.5 -460.0
NNH <=> H + N2                   330000000.0 0.0 0.0
NNH + M <=> H + N2 + M           130000000000000.02 -0.11 4980.0
AR/7.000E-01/ C2H6/3.000E+00/ CH4/2.000E+00/ CO/1.500E+00/ CO2/2.000E+00/ H2/2.000E+00/ H2O/6.000E+00/
NNH + O2 <=> HO2 + N2            5000000000000.001 0.0 0.0
NNH + O <=> N2 + OH              25000000000000.004 0.0 0.0
NNH + O <=> NH + NO              70000000000000.016 0.0 0.0
H + NNH <=> H2 + N2              50000000000000.01 0.0 0.0
NNH + OH <=> H2O + N2            20000000000000.004 0.0 0.0
CH3 + NNH <=> CH4 + N2           25000000000000.004 0.0 0.0
H + NO + M <=> HNO + M           4.480000000000001e+19 -1.32 740.0
AR/7.000E-01/ C2H6/3.000E+00/ CH4/2.000E+00/ CO/1.500E+00/ CO2/2.000E+00/ H2/2.000E+00/ H2O/6.000E+00/
HNO + O <=> NO + OH              25000000000000.004 0.0 0.0
H + HNO <=> H2 + NO              900000000000.0001 0.72 660.0
HNO + OH <=> H2O + NO            13000000.000000002 1.9 -950.0
HNO + O2 <=> HO2 + NO            10000000000000.002 0.0 13000.0
CN + O <=> CO + N                77000000000000.02 0.0 0.0
CN + OH <=> H + NCO              40000000000000.01 0.0 0.0
CN + H2O <=> HCN + OH            8000000000000.001 0.0 7460.0
CN + O2 <=> NCO + O              6140000000000.001 0.0 -440.0
CN + H2 <=> H + HCN              295000.00000000006 2.45 2240.0
NCO + O <=> CO + NO              23500000000000.004 0.0 0.0
H + NCO <=> CO + NH              54000000000000.01 0.0 0.0
NCO + OH <=> CO + H + NO         2500000000000.0005 0.0 0.0
N + NCO <=> CO + N2              20000000000000.004 0.0 0.0
NCO + O2 <=> CO2 + NO            2000000000000.0002 0.0 20000.0
NCO + M <=> CO + N + M           310000000000000.06 0.0 54050.0
AR/7.000E-01/ C2H6/3.000E+00/ CH4/2.000E+00/ CO/1.500E+00/ CO2/2.000E+00/ H2/2.000E+00/ H2O/6.000E+00/
NCO + NO <=> CO + N2O            1.9000000000000003e+17 -1.52 740.0
NCO + NO <=> CO2 + N2            3.8000000000000005e+18 -2.0 800.0
HCN + M <=> CN + H + M           1.0400000000000003e+29 -3.3 126600.0
AR/7.000E-01/ C2H6/3.000E+00/ CH4/2.000E+00/ CO/1.500E+00/ CO2/2.000E+00/ H2/2.000E+00/ H2O/6.000E+00/
HCN + O <=> H + NCO              20300.0 2.64 4980.0
HCN + O <=> CO + NH              5070.0 2.64 4980.0
HCN + O <=> CN + OH              3910000000.0000005 1.58 26600.0
HCN + OH <=> H + HOCN            1100000.0 2.03 13370.0
HCN + OH <=> H + HNCO            4400.000000000001 2.26 6400.0
HCN + OH <=> CO + NH2            160.00000000000003 2.56 9000.0
H + HCN (+M) <=> H2CN (+M)       33000000000000.004 0.0 0.0
LOW /1.4000000000000003e+26 -3.4 1900.0/
AR/7.000E-01/ C2H6/3.000E+00/ CH4/2.000E+00/ CO/1.500E+00/ CO2/2.000E+00/ H2/2.000E+00/ H2O/6.000E+00/
H2CN + N <=> CH2 + N2            60000000000000.01 0.0 400.0
C + N2 <=> CN + N                63000000000000.01 0.0 46020.0
CH + N2 <=> HCN + N              3120000000.0000005 0.88 20130.0
CH + N2 (+M) <=> HCNN (+M)       3100000000000.0005 0.15 0.0
LOW /1.3000000000000001e+25 -3.16 740.0/
TROE /0.667 235 2117 4536/
AR/1.000E+00/ C2H6/3.000E+00/ CH4/2.000E+00/ CO/1.500E+00/ CO2/2.000E+00/ H2/2.000E+00/ H2O/6.000E+00/
CH2 + N2 <=> HCN + NH            10000000000000.002 0.0 74000.0
CH2(S) + N2 <=> HCN + NH         100000000000.00002 0.0 65000.0
C + NO <=> CN + O                19000000000000.004 0.0 0.0
C + NO <=> CO + N                29000000000000.004 0.0 0.0
CH + NO <=> HCN + O              41000000000000.01 0.0 0.0
CH + NO <=> H + NCO              16200000000000.002 0.0 0.0
CH + NO <=> HCO + N              24600000000000.004 0.0 0.0
CH2 + NO <=> H + HNCO            3.1000000000000006e+17 -1.38 1270.0
CH2 + NO <=> HCN + OH            290000000000000.06 -0.69 760.0
CH2 + NO <=> H + HCNO            38000000000000.01 -0.36 580.0
CH2(S) + NO <=> H + HNCO         3.1000000000000006e+17 -1.38 1270.0
CH2(S) + NO <=> HCN + OH         290000000000000.06 -0.69 760.0
CH2(S) + NO <=> H + HCNO         38000000000000.01 -0.36 580.0
CH3 + NO <=> H2O + HCN           96000000000000.02 0.0 28800.0
CH3 + NO <=> H2CN + OH           1000000000000.0001 0.0 21750.0
HCNN + O <=> CO + H + N2         22000000000000.004 0.0 0.0
HCNN + O <=> HCN + NO            2000000000000.0002 0.0 0.0
HCNN + O2 <=> HCO + N2 + O       12000000000000.002 0.0 0.0
HCNN + OH <=> H + HCO + N2       12000000000000.002 0.0 0.0
H + HCNN <=> CH2 + N2            100000000000000.02 0.0 0.0
HNCO + O <=> CO2 + NH            98000000.00000001 1.41 8500.0
HNCO + O <=> CO + HNO            150000000.00000003 1.57 44000.0
HNCO + O <=> NCO + OH            2200000.0 2.11 11400.0
H + HNCO <=> CO + NH2            22500000.000000004 1.7 3800.0
H + HNCO <=> H2 + NCO            105000.00000000003 2.5 13300.0
HNCO + OH <=> H2O + NCO          33000000.000000007 1.5 3600.0
HNCO + OH <=> CO2 + NH2          3300000.000000001 1.5 3600.0
HNCO + M <=> CO + NH + M         1.1800000000000002e+16 0.0 84720.0
AR/7.000E-01/ C2H6/3.000E+00/ CH4/2.000E+00/ CO/1.500E+00/ CO2/2.000E+00/ H2/2.000E+00/ H2O/6.000E+00/
H + HCNO <=> H + HNCO            2100000000000000.2 -0.69 2850.0
H + HCNO <=> HCN + OH            270000000000.00006 0.18 2120.0
H + HCNO <=> CO + NH2            170000000000000.03 -0.75 2890.0
H + HOCN <=> H + HNCO            20000000.000000004 2.0 2000.0
HCCO + NO <=> CO + HCNO          9000000000000.002 0.0 0.0
CH3 + N <=> H + H2CN             610000000000000.1 -0.31 290.0
CH3 + N <=> H2 + HCN             3700000000000.0005 0.15 -90.0
H + NH3 <=> H2 + NH2             540000.0 2.4 9915.0
NH3 + OH <=> H2O + NH2           50000000.00000001 1.6 955.0
NH3 + O <=> NH2 + OH             9400000.000000002 1.94 6460.0
CO2 + NH <=> CO + HNO            10000000000000.002 0.0 14350.0
CN + NO2 <=> NCO + NO            6160000000000001.0 -0.752 345.0
NCO + NO2 <=> CO2 + N2O          3250000000000.0005 0.0 -705.0
CO2 + N <=> CO + NO              3000000000000.0005 0.0 11300.0
CH3 + O => CO + H + H2           33700000000000.008 0.0 0.0
C2H4 + O <=> CH2CHO + H          6700000.000000001 1.83 220.0
C2H5 + O <=> CH3CHO + H          109600000000000.02 0.0 0.0
HO2 + OH <=> H2O + O2            5000000000000001.0 0.0 17330.0
DUPLICATE
CH3 + OH => CH2O + H2            8000000000.000001 0.5 -1755.0
CH + H2 (+M) <=> CH3 (+M)        1970000000000.0002 0.43 -370.0
LOW /4.820000000000001e+25 -2.8 590.0/
TROE /0.578 122 2535 9365/
AR/7.000E-01/ C2H6/3.000E+00/ CH4/2.000E+00/ CO/1.500E+00/ CO2/2.000E+00/ H2/2.000E+00/ H2O/6.000E+00/
CH2 + O2 => CO2 + 2 H            5800000000000.001 0.0 1500.0
CH2 + O2 <=> CH2O + O            2400000000000.0005 0.0 1500.0
2 CH2 => C2H2 + 2 H              200000000000000.03 0.0 10989.0
CH2(S) + H2O => CH2O + H2        68200000000.000015 0.25 -935.0
C2H3 + O2 <=> CH2CHO + O         303000000000.00006 0.29 11.0
C2H3 + O2 <=> C2H2 + HO2         1337000.0000000002 1.61 -384.0
CH3CHO + O <=> CH2CHO + OH       2920000000000.0005 0.0 1808.0
CH3CHO + O => CH3 + CO + OH      2920000000000.0005 0.0 1808.0
CH3CHO + O2 => CH3 + CO + HO2    30100000000000.004 0.0 39150.0
CH3CHO + H <=> CH2CHO + H2       2050000000.0000005 1.16 2405.0
CH3CHO + H => CH3 + CO + H2      2050000000.0000005 1.16 2405.0
CH3CHO + OH => CH3 + CO + H2O    23430000000.000004 0.73 -1113.0
CH3CHO + HO2 => CH3 + CO + H2O2  3010000000000.0005 0.0 11923.0
CH3CHO + CH3 => CH4 + CO + CH3   2720000.0000000005 1.77 5920.0
CH2CO + H (+M) <=> CH2CHO (+M)   486500000000.00006 0.422 -1755.0
LOW /1.0120000000000001e+42 -7.63 3854.0/
TROE /0.465 201 1773 5333/
AR/7.000E-01/ C2H6/3.000E+00/ CH4/2.000E+00/ CO/1.500E+00/ CO2/2.000E+00/ H2/2.000E+00/ H2O/6.000E+00/
CH2CHO + O => CH2 + CO2 + H      150000000000000.03 0.0 0.0
CH2CHO + O2 => CH2O + CO + OH    18100000000.000004 0.0 0.0
CH2CHO + O2 => 2 HCO + OH        23500000000.000004 0.0 0.0
CH2CHO + H <=> CH3 + HCO         22000000000000.004 0.0 0.0
CH2CHO + H <=> CH2CO + H2        11000000000000.002 0.0 0.0
CH2CHO + OH <=> CH2CO + H2O      12000000000000.002 0.0 0.0
CH2CHO + OH <=> CH2OH + HCO      30100000000000.004 0.0 0.0
C2H5 + CH3 (+M) <=> C3H8 (+M)    9430000000000.002 0.0 0.0
LOW /2.7100000000000005e+74 -16.82 13065.0/
TROE /0.1527 291 2742 7748/
AR/7.000E-01/ C2H6/3.000E+00/ CH4/2.000E+00/ CO/1.500E+00/ CO2/2.000E+00/ H2/2.000E+00/ H2O/6.000E+00/
C3H8 + O <=> C3H7 + OH           193000.00000000003 2.68 3716.0
C3H8 + H <=> C3H7 + H2           1320000.0000000002 2.54 6756.0
C3H8 + OH <=> C3H7 + H2O         31600000.000000004 1.8 934.0
C3H7 + H2O2 <=> C3H8 + HO2       378.00000000000006 2.72 1500.0
C3H8 + CH3 <=> C3H7 + CH4        0.9030000000000001 3.65 7154.0
C2H4 + CH3 (+M) <=> C3H7 (+M)    2550000.0000000005 1.6 5700.0
LOW /3.0000000000000007e+63 -14.6 18170.0/
TROE /0.1894 277 8748 7891/
AR/7.000E-01/ C2H6/3.000E+00/ CH4/2.000E+00/ CO/1.500E+00/ CO2/2.000E+00/ H2/2.000E+00/ H2O/6.000E+00/
C3H7 + O <=> C2H5 + CH2O         96400000000000.02 0.0 0.0
C3H7 + H (+M) <=> C3H8 (+M)      36130000000000.01 0.0 0.0
LOW /4.420000000000001e+61 -13.545 11357.0/
TROE /0.315 369 3285 6667/
AR/7.000E-01/ C2H6/3.000E+00/ CH4/2.000E+00/ CO/1.500E+00/ CO2/2.000E+00/ H2/2.000E+00/ H2O/6.000E+00/
C3H7 + H <=> C2H5 + CH3          4060000.0000000005 2.19 890.0
C3H7 + OH <=> C2H5 + CH2OH       24100000000000.004 0.0 0.0
C3H7 + HO2 <=> C3H8 + O2         25500000000.000004 0.255 -943.0
C3H7 + HO2 => C2H5 + CH2O + OH   24100000000000.004 0.0 0.0
C3H7 + CH3 <=> 2 C2H5            19270000000000.004 -0.32 0.0
END



TRANSPORT
H2                 1    38.000     2.920     0.000     0.790   280.000
H                  0   145.000     2.050     0.000     0.000     0.000
O                  0    80.000     2.750     0.000     0.000     0.000
O2                 1   107.400     3.458     0.000     1.600     3.800
OH                 1    80.000     2.750     0.000     0.000     0.000
H2O                2   572.400     2.605     1.844     0.000     4.000
HO2                2   107.400     3.458     0.000     0.000     1.000 ! *
H2O2               2   107.400     3.458     0.000     0.000     3.800
C                  0    71.400     3.298     0.000     0.000     0.000 ! *
CH                 1    80.000     2.750     0.000     0.000     0.000
CH2                1   144.000     3.800     0.000     0.000     0.000
CH2(S)             1   144.000     3.800     0.000     0.000     0.000
CH3                1   144.000     3.800     0.000     0.000     0.000
CH4                2   141.400     3.746     0.000     2.600    13.000
CO                 1    98.100     3.650     0.000     1.950     1.800
CO2                1   244.000     3.763     0.000     2.650     2.100
HCO                2   498.000     3.590     0.000     0.000     0.000
CH2O               2   498.000     3.590     0.000     0.000     2.000
CH2OH              2   417.000     3.690     1.700     0.000     2.000
CH3O               2   417.000     3.690     1.700     0.000     2.000
CH3OH              2   481.800     3.626     0.000     0.000     1.000 ! SVE
C2H                1   209.000     4.100     0.000     0.000     2.500
C2H2               1   209.000     4.100     0.000     0.000     2.500
C2H3               2   209.000     4.100     0.000     0.000     1.000 ! *
C2H4               2   280.800     3.971     0.000     0.000     1.500
C2H5               2   252.300     4.302     0.000     0.000     1.500
C2H6               2   252.300     4.302     0.000     0.000     1.500
HCCO               2   150.000     2.500     0.000     0.000     1.000 ! *
CH2CO              2   436.000     3.970     0.000     0.000     2.000
HCCOH              2   436.000     3.970     0.000     0.000     2.000
N                  0    71.400     3.298     0.000     0.000     0.000 ! *
NH                 1    80.000     2.650     0.000     0.000     4.000
NH2                2    80.000     2.650     0.000     2.260     4.000
NH3                2   481.000     2.920     1.470     0.000    10.000
NNH                2    71.400     3.798     0.000     0.000     1.000 ! *
NO                 1    97.530     3.621     0.000     1.760     4.000
NO2                2   200.000     3.500     0.000     0.000     1.000 ! *
N2O                1   232.400     3.828     0.000     0.000     1.000 ! *
HNO                2   116.700     3.492     0.000     0.000     1.000 ! *