!---------------------------------------------------------------------------
!  Generated from 2S_CH4_CM2.cti 
!    file from https://www.cerfacs.fr/cantera/mechanisms/meth.php#san 
!    Another 2 step mechanism : 2S_CH4_CM2 
!---------------------------------------------------------------------------
ELEMENTS
O H C N
END
SPECIES
O2              H2O             CH4             CO              
CO2             N2              
END
!---------------------------------------------------------------------------
!  
!---------------------------------------------------------------------------
!---------------------------------------------------------------------------
!  
!---------------------------------------------------------------------------
REACTIONS
CH4+1.5O2=>CO+2H2O                       2.00E+15     0.000   35000.00
FORD / CH4 0.90 /
FORD / O2 1.10 /
CO+0.5O2<=>CO2                           2.00E+09      .000   12000.00
END