! generator: yaml2ck
! cantera-version: 3.0.0
! date: Tue, 05 Mar 2024 15:45:03 -0800
! input-files: ['2S_CH4_CM2.yml']
!
! ---------------------------------------------------------------------------   Generated from 2S_CH4_CM2.cti     file
! from https://www.cerfacs.fr/cantera/mechanisms/meth.php#san     Another 2 step mechanism : 2S_CH4_CM2
! ---------------------------------------------------------------------------

ELEM
O H C N
END

SPECIES
O2  H2O  CH4  CO  CO2  N2
END

REACTIONS CAL/MOLE MOLE
CH4 + 1.5 O2 => CO + 2 H2O 2000000000000000.2 0.0 35000.0
FORD /CH4 0.900/
FORD /O2 1.100/
CO + 0.5 O2 <=> CO2        1999999999.9999998 0.0 12000.0
END
