! generator: yaml2ck
! cantera-version: 3.0.0
! date: Tue, 06 Feb 2024 15:15:56 -0800
! input-files: ['MMAReduced.yml']
!
!  Reduced kinetic mechanism of methyl methacrylate oxidation in flames at atmospheric pressure T.A. Bolshova,  A.A.
! Chernov,  A. G. Shmakov FGV,2020

ELEM
C H N O Ar
END

SPECIES
C(S) H  O2  O  OH  H2  H2O  HO2  H2O2  CO  CO2  HCO  CH  T-CH2  CH3  CH2O  HCCO  C2H
CH2CO  C2H2  S-CH2  C2H4  CH3OH  CH2OH  CH3O  CH4  CH3O2  C2H3  C2H5  CH2CHO
CH3CHO  H2C2  C2H5O  N-C3H7  C2H6  C3H8  C3H6  C3H3  P-C3H4  A-C3H4  S-C3H5
C2H3CHO  A-C3H5  C2O  C4H4  CH3OCO  C3H2O  T-C3H5  C3H5O  C4H6  N-C4H5  I-C4H5
I-C3H7  HOCHO  CH3CHCO  CH3COCH2  C2H3CHCHO  CH3COCH3  CH3CO  I-C3H5CO
MP2D_C4H6O2  MP2J_C4H7O2  MP3J_C4H7O2  MMETHMJ_C5H7O2  MMETHAC_C5H8O2
MMETHPJ_C5H7O2  N2  AR
END

REACTIONS CAL/MOLE MOLE
H + O2 <=> O + OH                                    104000000000000.02 0.0 15286.1
H2 + O <=> H + OH                                    3818000000000.0005 0.0 7947.9
DUPLICATE
H2 + O <=> H + OH                                    879200000000000.1 0.0 19169.9
DUPLICATE
H2 + OH <=> H + H2O                                  216000000.00000003 1.51 3429.97
2 OH <=> H2O + O                                     33400.00000000001 2.42 -1929.97
H + O + M <=> OH + M                                 4.714000000000001e+18 -1.0 0.0
AR/7.500E-01/ CO/1.900E+00/ CO2/3.800E+00/ H2/2.500E+00/ H2O/1.200E+01/
H2O + M <=> H + OH + M                               6.064000000000001e+27 -3.322 120790.0
AR/1.100E+00/ CO/1.900E+00/ CO2/3.800E+00/ H2/3.000E+00/ H2O/0.000E+00/ N2/2.000E+00/ O2/1.500E+00/
H2O + H2O <=> H + OH + H2O                           1.0060000000000001e+26 -2.44 120180.0
H + O2 (+M) <=> HO2 (+M)                             4651000000000.001 0.44 0.0
LOW /9.042000000000002e+19 -1.5 492.11/
TROE /0.5 1E-20 1E+30/
AR/1.200E+00/ CO/2.700E+00/ CO2/5.400E+00/ H2/3.000E+00/ H2O/2.100E+01/ N2/1.500E+00/ O2/1.100E+00/
H + HO2 <=> H2 + O2                                  2750000.0000000005 2.09 -1451.0
H + HO2 <=> 2 OH                                     70790000000000.02 0.0 294.93
HO2 + O <=> O2 + OH                                  28500000000.000004 1.0 -723.95
HO2 + OH <=> H2O + O2                                28900000000000.004 0.0 -496.89
2 HO2 <=> H2O2 + O2                                  420000000000000.06 0.0 11982.1
DUPLICATE
2 HO2 <=> H2O2 + O2                                  130000000000.00002 0.0 -1629.3
DUPLICATE
H2O2 (+M) <=> 2 OH (+M)                              2000000000000.0 0.9 48749.0
LOW /2.4900000000000005e+24 -2.3 48750.0/
TROE /0.43 1E-20 1E+30/
AR/6.500E-01/ CO/2.800E+00/ CO2/1.600E+00/ H2/3.700E+00/ H2O/7.500E+00/ H2O2/7.700E+00/ N2/1.500E+00/ O2/1.200E+00/
H + H2O2 <=> H2O + OH                                24100000000000.004 0.0 3969.89
H + H2O2 <=> H2 + HO2                                48200000000000.01 0.0 7950.05
H2O2 + O <=> HO2 + OH                                9550000.0 2.0 3969.89
H2O2 + OH <=> H2O + HO2                              1740000000000.0002 0.0 318.12
DUPLICATE
H2O2 + OH <=> H2O + HO2                              75900000000000.02 0.0 7270.08
DUPLICATE
CO + OH <=> CO2 + H                                  70460.00000000001 2.053 -355.64
DUPLICATE
CO + OH <=> CO2 + H                                  5757000000000.001 -0.664 331.74
DUPLICATE
CO + HO2 <=> CO2 + OH                                157000.00000000003 2.18 17942.6
H + HCO <=> CO + H2                                  120000000000000.02 0.0 0.0
HCO + OH <=> CO + H2O                                30200000000000.004 0.0 0.0
HCO + M <=> CO + H + M                               474800000000.00006 0.659 14873.8
CO/1.750E+00/ CO2/3.600E+00/ H2/2.000E+00/ H2O/0.000E+00/
HCO + O2 <=> CO + HO2                                7580000000000.001 0.0 409.89
CH + H2 <=> H + T-CH2                                108000000000000.02 0.0 3109.46
CH + H2O <=> CH2O + H                                5710000000000.001 0.0 -755.26
O2 + T-CH2 => CO2 + 2 H                              5800000000000.001 0.0 1500.96
O2 + T-CH2 <=> CH2O + O                              2400000000000.0005 0.0 1500.96
O2 + T-CH2 => CO + H + OH                            5000000000000.001 0.0 1500.96
HO2 + T-CH2 <=> CH2O + OH                            20000000000000.004 0.0 0.0
CO + T-CH2 (+M) <=> CH2CO (+M)                       810000000000.0001 0.5 4510.04
LOW /2.6900000000000005e+33 -5.11 7096.08/
TROE /0.5907 275 1226 5185/
AR/7.000E-01/ C2H6/3.000E+00/ CH4/2.000E+00/ CO/1.750E+00/ CO2/3.600E+00/ H2/2.000E+00/ H2O/1.200E+01/
CH2CO + S-CH2 => C2H4 + CO                           160000000000000.03 0.0 0.0
O2 + S-CH2 <=> CO + H + OH                           28000000000000.004 0.0 0.0
O2 + S-CH2 <=> CO + H2O                              12000000000000.002 0.0 0.0
H2O + S-CH2 <=> H2O + T-CH2                          30000000000000.004 0.0 0.0
CO2 + S-CH2 <=> CH2O + CO                            14000000000000.002 0.0 0.0
CH2O + H (+M) <=> CH3O (+M)                          540000000000.0001 0.45 2600.38
LOW /2.2000000000000006e+30 -4.8 5559.27/
TROE /0.758 94 1555 4200/
AR/7.000E-01/ C2H6/3.000E+00/ CH4/2.000E+00/ CO/1.750E+00/ CO2/3.600E+00/ H2/2.000E+00/ H2O/1.200E+01/
CH2O + H <=> H2 + HCO                                57400000.000000015 1.9 2741.4
CH2O + O <=> HCO + OH                                39000000000000.01 0.0 3539.67
CH2O + OH <=> H2O + HCO                              3430000000.0000005 1.18 -446.94
CH2O + O2 <=> HCO + HO2                              100000000000000.02 0.0 40000.0
CH2O + HO2 <=> H2O2 + HCO                            5600000.000000001 2.0 12000.5
CH3 + H (+M) <=> CH4 (+M)                            69200000000000.016 0.18 0.0
LOW /3.470000000000001e+38 -6.3 5074.09/
TROE /0.783 74 2941 6964/
AR/7.000E-01/ C2H6/3.000E+00/ CH4/3.000E+00/ CO/1.500E+00/ CO2/2.000E+00/ H2/2.000E+00/ H2O/6.000E+00/
CH3 + O <=> CH2O + H                                 50600000000000.01 0.0 0.0
CH3 + O => CO + H + H2                               33700000000000.008 0.0 0.0
CH3 + OH (+M) <=> CH3OH (+M)                         2.7900000000000005e+18 -1.43 1331.26
LOW /4.0000000000000014e+36 -5.92 3140.54/
TROE /0.412 195 5900 6394/
AR/7.000E-01/ C2H6/3.000E+00/ CH4/2.000E+00/ CO/1.750E+00/ CO2/3.600E+00/ H2/2.000E+00/ H2O/1.200E+01/
CH3 + OH <=> H2O + T-CH2                             56000000.00000001 1.6 5420.65
CH3 + OH <=> H2O + S-CH2                             6.440000000000001e+17 -1.34 1417.3
CH3 + O2 <=> CH3O + O                                13800000000000.002 0.0 30521.0
CH3 + O2 <=> CH2O + OH                               587000000000.0001 0.0 13840.8
CH3 + O2 (+M) <=> CH3O2 (+M)                         101000000.00000001 1.63 0.0
LOW /3.820000000000001e+31 -4.89 3432.12/
TROE /0.045 880.1 2.5E+09 1.786E+09/
CH3 + CH3O2 <=> 2 CH3O                               10000000000000.002 0.0 -1199.81
CH2O + CH3O2 => CH3O + HCO + OH                      1990000000000.0002 0.0 11670.6
CH3 + HO2 <=> CH3O + OH                              10000000000000.002 0.0 0.0
CH3 + HO2 <=> CH4 + O2                               3610000000000.0005 0.0 0.0
CH3 + H2O2 <=> CH4 + HO2                             24500.000000000004 2.47 5179.25
CH3 + HCO <=> CH4 + CO                               26500000000000.004 0.0 0.0
CH2O + CH3 <=> CH4 + HCO                             3320.0000000000005 2.81 5860.42
CH3 + T-CH2 <=> C2H4 + H                             100000000000000.02 0.0 0.0
2 CH3 <=> C2H5 + H                                   6840000000000.001 0.1 10599.9
CH3O + H <=> CH2O + H2                               20000000000000.004 0.0 0.0
CH3O + H <=> CH3 + OH                                1500000000000.0002 0.5 -109.94
CH3O + O2 <=> CH2O + HO2                             4.2800000000000004e-13 7.6 -3530.11
CH2OH + H <=> CH3 + OH                               165000000000.00003 0.65 -284.42
CH2OH + O2 <=> CH2O + HO2                            18000000000000.004 0.0 901.05
CH4 + H <=> CH3 + H2                                 660000000.0000001 1.62 10841.3
CH4 + O <=> CH3 + OH                                 1020000000.0000001 1.5 8599.43
CH4 + OH <=> CH3 + H2O                               100000000.00000001 1.6 3119.0199999999995
CH4 + T-CH2 <=> 2 CH3                                2460000.0000000005 2.0 8269.6
CH3OH + H <=> CH2OH + H2                             17000000.000000004 2.1 4870.94
C2H + O2 <=> CO + HCO                                10000000000000.002 0.0 -755.26
H + HCCO <=> CO + S-CH2                              100000000000000.02 0.0 0.0
HCCO + O <=> 2 CO + H                                100000000000000.02 0.0 0.0
HCCO + O2 <=> 2 CO + OH                              42000000000.00001 0.0 853.25
2 HCCO <=> C2H2 + 2 CO                               10000000000000.002 0.0 0.0
C2H2 + H (+M) <=> C2H3 (+M)                          17100000000.000004 1.27 2707.93
LOW /6.3400000000000005e+31 -4.66 3781.07/
TROE /0.2122 1 -10212/
AR/7.000E-01/ C2H6/3.000E+00/ CH4/2.000E+00/ CO/1.750E+00/ CO2/3.600E+00/ H2/2.000E+00/ H2O/1.200E+01/
C2H2 + O <=> H + HCCO                                8100000.000000002 2.0 1900.1
C2H2 + O <=> CO + T-CH2                              12500000.000000002 2.0 1900.1
CH2CO + H <=> H2 + HCCO                              50000000000000.01 0.0 7999.52
CH2CO + H <=> CH3 + CO                               1500000000.0000002 1.38 614.24
CH2CO + O <=> CO2 + T-CH2                            1750000000000.0002 0.0 1350.38
CH2CO + OH <=> H2O + HCCO                            7500000000000.001 0.0 2000.48
C2H3 + H <=> C2H2 + H2                               30000000000000.004 0.0 0.0
C2H3 + O <=> CH2CHO                                  10300000000000.002 0.21 -427.82
C2H3 + O2 <=> C2H2 + HO2                             1340000.0000000002 1.61 -384.8
C2H3 + O2 <=> CH2CHO + O                             303000000000.00006 0.29 11.95
C2H3 + O2 <=> CH2O + HCO                             4.580000000000001e+16 -1.39 1015.77
CH2CHO <=> CH2CO + H                                 1.32e+34 -6.57 49457.5
CH2CHO <=> CH3 + CO                                  6.51e+34 -6.87 47194.1
CH2CHO + O <=> CH2O + HCO                            31700000000000.004 0.03 -394.36
CH2CHO + O2 => CH2O + CO + OH                        18100000000.000004 0.0 0.0
CH2CHO + O2 => 2 HCO + OH                            23500000000.000004 0.0 0.0
CH2CHO + H <=> CH2CO + H2                            11000000000000.002 0.0 0.0
CH2CHO + OH <=> CH2CO + H2O                          12000000000000.002 0.0 0.0
CH3 + HCO <=> CH3CHO                                 50000000000000.01 0.0 0.0
CH3CHO + H <=> CH2CHO + H2                           2050000000.0000005 1.16 2404.4
CH3CHO + H => CH3 + CO + H2                          2050000000.0000005 1.16 2404.4
CH3CHO + OH => CH3 + CO + H2O                        23400000000.000004 0.73 -1113.77
C2H4 + H (+M) <=> C2H5 (+M)                          1370000000.0000002 1.46 1355.16
LOW /2.0300000000000004e+39 -6.64 5769.6/
TROE /-0.569 299 -9147 152.4/
AR/7.000E-01/ C2H6/3.000E+00/ CH4/2.000E+00/ CO/1.750E+00/ CO2/3.600E+00/ H2/2.000E+00/ H2O/1.200E+01/
C2H4 + H <=> C2H3 + H2                               127000.00000000003 2.75 11649.1
C2H4 + O <=> CH2CHO + H                              7660000000.000001 0.88 1140.06
C2H4 + O <=> CH2O + T-CH2                            71500.00000000001 2.47 929.73
C2H4 + O <=> CH3 + HCO                               389000000.00000006 1.36 886.71
C2H4 + OH <=> C2H3 + H2O                             0.131 4.2 -860.42
C2H4 + CH3 <=> C2H3 + CH4                            227000.00000000003 2.0 9199.33
C2H4 + CH3 (+M) <=> N-C3H7 (+M)                      2550000.0000000005 1.6 5700.29
LOW /3.0000000000000007e+63 -14.6 18169.2/
TROE /0.1894 277 8748 7891/
AR/7.000E-01/ C2H6/3.000E+00/ CH4/2.000E+00/ CO/1.750E+00/ CO2/3.600E+00/ H2/2.000E+00/ H2O/1.200E+01/
C2H5O <=> CH2O + CH3                                 1.32e+20 -2.02 20750.5
C2H5O <=> CH3CHO + H                                 5450000000000000.0 -0.69 22229.9
C2H5 + O2 <=> C2H4 + HO2                             19200000.000000004 1.02 -2033.9400000000003
C3H8 (+M) <=> C2H5 + CH3 (+M)                        1.29e+37 -5.84 97387.7
LOW /5.640000000000001e+74 -15.74 98718.9/
TROE /0.31 50 3000 9000/
AR/7.000E-01/ C2H6/3.000E+00/ CH4/2.000E+00/ CO/1.750E+00/ CO2/3.600E+00/ H2/2.000E+00/ H2O/1.200E+01/
C2H6 (+M) <=> 2 CH3 (+M)                             1.88e+50 -9.72 107342.0
LOW /3.7200000000000004e+65 -13.14 101580.0/
TROE /0.39 100 1900 6000/
AR/7.000E-01/ C2H6/3.000E+00/ CH4/2.000E+00/ CO/1.750E+00/ CO2/3.600E+00/ H2/2.000E+00/ H2O/1.200E+01/
C2H6 + H <=> C2H5 + H2                               170000.00000000003 2.7 5740.92
C2H6 + O <=> C2H5 + OH                               31.700000000000006 3.8 3130.98
C2H6 + OH <=> C2H5 + H2O                             1610000.0000000002 2.22 740.92
C2H6 + CH3 <=> C2H5 + CH4                            843000000000000.1 0.0 22256.2
C3H8 + OH <=> H2O + N-C3H7                           5360000.000000001 2.01 365.68
C2H2 + M <=> H2C2 + M                                2450000000000000.5 -0.64 49698.8
AR/7.000E-01/ C2H6/3.000E+00/ CH4/2.000E+00/ CO/1.750E+00/ CO2/3.600E+00/ H2/2.000E+00/ H2O/6.000E+00/
H2C2 + O2 <=> 2 HCO                                  10000000000000.002 0.0 0.0
C2H2 + S-CH2 <=> C3H3 + H                            190000000000000.03 0.0 0.0
H + P-C3H4 <=> C2H2 + CH3                            3460000000000.0005 0.44 5463.67
A-C3H4 + H <=> C2H2 + CH3                            89500000000000.02 -0.02 11250.0
C2H3 + CH3 <=> C2H2 + CH4                            9030000000000.002 0.0 -764.82
C3H6 <=> C2H3 + CH3                                  4.04e+42 -7.67 111831.0
C2H3 + CH3 <=> A-C3H5 + H                            1.9300000000000003e+18 -1.25 7669.69
A-C3H5 + H <=> C3H6                                  5.9300000000000006e+54 -11.76 23549.2
C2O + O2 <=> 2 CO + O                                20000000000000.004 0.0 0.0
CH3 + HCCO <=> C2H4 + CO                             50000000000000.01 0.0 0.0
HCCO + OH <=> C2O + H2O                              30000000000000.004 0.0 0.0
CH2CO + OH <=> CH2OH + CO                            5000000000000.001 0.0 0.0
CH2CO + T-CH2 <=> C2H4 + CO                          1000000000000.0001 0.0 0.0
CH2CO + CH3 <=> C2H5 + CO                            90000000000.00002 0.0 0.0
CH2CO + CH3 <=> CH4 + HCCO                           7500000000000.001 0.0 12999.5
CH2CHO + CH3 <=> C2H5 + HCO                          490000000000000.06 -0.5 0.0
CH3OCO => CH3 + CO2                                  359000000000000.0 -0.172 16009.999999999998
CH3OCO => CH3O + CO                                  1431000000000000.0 -0.041 23770.1
CH3O + CO => CH3OCO                                  1550000.0000000002 2.02 5729.92
C2H5 + HCO <=> C2H6 + CO                             120000000000000.02 0.0 0.0
C2H5 + HO2 <=> C2H6 + O2                             300000000000.00006 0.0 0.0
C2H5 + HO2 <=> C2H5O + OH                            31000000000000.004 0.0 0.0
C2H6 + HO2 <=> C2H5 + H2O2                           261.00000000000006 3.37 15913.0
C3H2O + H <=> C2H2 + HCO                             3460000000000.0005 0.44 5463.67
C3H2O + OH => C2H + CO + H2O                         23400000000.000004 0.73 -1113.77
C3H2O + CH3 => C2H + CH4 + CO                        2720000.0000000005 1.77 5920.17
C3H3 + H <=> P-C3H4                                  7.940000000000001e+29 -5.06 4861.380000000001
C3H3 + H <=> A-C3H4                                  3.1600000000000006e+29 -5.0 4710.8
C3H3 + O <=> C3H2O + H                               138000000000000.03 0.0 0.0
C3H3 + O2 <=> CH2CO + HCO                            170000.00000000003 1.7 1500.96
C3H3 + HO2 <=> C2H3 + CO + OH                        800000000000.0001 0.0 0.0
C3H3 + HO2 <=> A-C3H4 + O2                           300000000000.00006 0.0 0.0
C3H3 + HO2 <=> O2 + P-C3H4                           300000000000.00006 0.0 0.0
O2 + P-C3H4 <=> CH3 + CO + HCO                       400000000000000.06 0.0 41928.8
C3H3 + HCO <=> A-C3H4 + CO                           25000000000000.004 0.0 0.0
C3H3 + HCO <=> CO + P-C3H4                           25000000000000.004 0.0 0.0
CH2CHO (+M) <=> CH2CO + H (+M)                       1430000000000000.0 -0.15 45599.9
LOW /6.0000000000000005e+29 -3.8 43419.9/
TROE /0.985 393 9.8E+09 5E+09/
A-C3H4 <=> P-C3H4                                    7.76e+39 -7.8 78446.5
A-C3H4 + H <=> H + P-C3H4                            2470000000000000.5 -0.33 6436.42
A-C3H4 + H <=> A-C3H5                                2.0100000000000002e+49 -10.77 19622.4
H + P-C3H4 <=> T-C3H5                                8.830000000000001e+52 -12.36 16446.0
H + P-C3H4 <=> C3H3 + H2                             85000.00000000001 2.7 5740.92
O + P-C3H4 <=> C3H3 + OH                             44900000.00000001 1.92 5690.73
OH + P-C3H4 <=> C3H3 + H2O                           783.0000000000001 3.01 -1139.82
CH3 + P-C3H4 <=> C3H3 + CH4                          422000000000000.06 0.0 22256.2
HO2 + P-C3H4 <=> C3H3 + H2O2                         130.0 3.37 15913.0
A-C3H4 + H <=> C3H3 + H2                             1330000.0000000002 2.53 12239.5
A-C3H4 + OH <=> C3H3 + H2O                           512.0000000000001 3.05 -2295.89
A-C3H4 + OH => CH2CO + CH3                           3120000000000.0005 0.0 -396.99
A-C3H4 + CH3 <=> C3H3 + CH4                          227000.00000000003 2.0 9199.33
A-C3H4 + O <=> CH2CO + T-CH2                         9630000.0 2.05 179.25
O + P-C3H4 <=> CH3 + HCCO                            4050000.000000001 2.0 1900.1
O + P-C3H4 <=> C2H4 + CO                             6250000.000000001 2.0 1900.1
OH + P-C3H4 <=> C2H5 + CO                            1280000000.0000002 0.73 2578.87
C2H3CHO + OH => C2H3 + CO + H2O                      289000000.00000006 1.35 -1572.66
C2H3CHO + CH3 => C2H3 + CH4 + CO                     3.490000000000001e-08 6.21 1630.02
A-C3H4 + HO2 => CH2CO + OH + T-CH2                   4000000000000.0005 0.0 19000.0
A-C3H5 + HCO <=> C3H6 + CO                           60000000000000.01 0.0 0.0
A-C3H5 + HO2 <=> C3H6 + O2                           2660000000000.0005 0.0 0.0
A-C3H5 + HO2 <=> C3H5O + OH                          1.0600000000000002e+16 -0.94 2523.9
HO2 + T-C3H5 <=> CH2CO + CH3 + OH                    20000000000000.004 0.0 0.0
HCO + T-C3H5 <=> C3H6 + CO                           90000000000000.02 0.0 0.0
O2 + T-C3H5 <=> HO2 + P-C3H4                         1340000.0000000002 1.61 -384.8
O2 + T-C3H5 => CH2CO + CH3 + O                       303000000000.00006 0.29 11.95
O2 + T-C3H5 => CH2O + CH3 + CO                       4.580000000000001e+16 -1.39 1015.77
O2 + T-C3H5 <=> A-C3H4 + HO2                         19200000.000000004 1.02 -2033.9400000000003
C3H5O <=> C2H3CHO + H                                100000000000000.0 0.0 29098.9
C3H5O => C2H3 + CH2O                                 2030000000000.0 0.09 23561.2
C3H6 + H <=> A-C3H5 + H2                             660000.0000000001 2.54 6756.69
C3H6 + OH <=> A-C3H5 + H2O                           200000000.00000003 1.46 537.76
C3H6 + OH <=> H2O + S-C3H5                           0.0655 4.2 -860.42
C2H4 + H2C2 <=> C4H6                                 1000000000000.0001 0.0 0.0
C2H2 + H2C2 <=> C4H4                                 190000000000000.03 0.0 0.0
C2H2 + C2H3 <=> N-C4H5                               1320000000000.0002 0.16 8312.62
C3H3 + CH3 (+M) <=> C4H6 (+M)                        1500000000000.0002 0.0 0.0
LOW /2.6000000000000004e+57 -11.94 9772.94/
TROE /0.175 1340.6 60000 9769.8/
AR/7.000E-01/ C2H6/3.000E+00/ CH4/2.000E+00/ CO/1.750E+00/ CO2/3.600E+00/ H2/2.000E+00/ H2O/1.200E+01/
C4H6 <=> C4H4 + H2                                   2500000000000000.0 0.0 94698.9
CH3 + P-C3H4 <=> C4H6 + H                            89400000.00000001 1.14 12380.5
A-C3H4 + CH3 <=> C4H6 + H                            283000000.00000006 1.06 11161.6
C4H6 + H <=> H2 + N-C4H5                             1330000.0000000002 2.53 12239.5
C4H6 + H <=> H2 + I-C4H5                             665000.0000000001 2.53 9239.96
C4H6 + OH <=> H2O + N-C4H5                           6200000.000000001 2.0 3429.73
C4H6 + OH <=> H2O + I-C4H5                           3100000.0000000005 2.0 430.21
C4H6 + CH3 <=> CH4 + N-C4H5                          200000000000000.03 0.0 22834.6
C4H6 + CH3 <=> CH4 + I-C4H5                          100000000000000.02 0.0 19799.2
C4H6 + O <=> CH2O + P-C3H4                           71500.00000000001 2.47 929.73
C4H4 + H <=> I-C4H5                                  4.900000000000001e+51 -11.92 17700.8
C4H6 + OH => C2H5 + CH2CO                            1000000000000.0001 0.0 0.0
I-C3H7 => C3H6 + H                                   9.88e+18 -1.59 40348.9
C2H4 + CH3 => I-C3H7                                 410000000000.00006 0.0 7203.63
HCO + OH => HOCHO                                    100000000000000.02 0.0 0.0
H + HOCHO => CO + H2 + OH                            60300000000000.01 -0.35 2988.05
HOCHO => HCO + OH                                    3.471e+22 -1.542 110700.0
CH3O2 + H => CH3O + OH                               96000000000000.02 0.0 0.0
C2H5 + O2 => CH3CHO + OH                             826.5000000000001 2.41 5284.89
A-C3H4 + O => C2H2 + CH2O                            0.0030000000000000005 4.61 -4243.07
C3H6 + O => CH3CHCO + 2 H                            25000000.000000004 1.76 76.0
CH3COCH2 => CH2CO + CH3                              100000000000000.0 0.0 31000.0
O2 + T-C3H5 => CH3COCH2 + O                          3.8100000000000006e+17 -1.36 5580.07
2 CH3O => CH2O + CH3OH                               60300000000000.01 0.0 0.0
C2H2 + HCO => C2H3 + CO                              10000000.000000002 2.0 6000.0
C2H3 + HO2 => CH2CHO + OH                            10000000000000.002 0.0 0.0
C2H4 + O => C2H3 + OH                                242000000000.00003 0.7 8960.33
CH3CO (+M) <=> CH3 + CO (+M)                         3000000000000.0 0.0 16719.9
LOW /1200000000000000.2 0.0 12520.099999999999/
TROE /1 1 1E+07 1E+07/
CH3 + CH3COCH3 => CH3COCH2 + CH4                     396000000000.00006 0.0 9783.94
CH3COCH3 => CH3 + CH3CO                              1.31e+42 -7.657 94660.6
CH3COCH3 + OH => CH3COCH2 + H2O                      125000.00000000003 2.483 445.03
CH3COCH3 + HO2 => CH3COCH2 + H2O2                    17000000000000.004 0.0 20460.1
CH3COCH3 + H => CH3COCH2 + H2                        980000.0000000002 2.43 5159.89
C4H6 + O => C2H3CHCHO + H                            450000000.00000006 1.45 -859.94
C4H6 + H <=> C2H3 + C2H4                             1.46e+30 -4.34 21647.0
I-C3H5CO <=> CO + T-C3H5                             1.278e+20 -1.89 34460.1
H + MP2D_C4H6O2 <=> MP2J_C4H7O2                      10000000000000.002 0.0 2900.1
MP2D_C4H6O2 <=> C2H3 + CH3O + CO                     1e+16 0.0 71000.0
H + MP2D_C4H6O2 <=> MP3J_C4H7O2                      10000000000000.002 0.0 2900.1
MP3J_C4H7O2 => C2H4 + CH3OCO                         30300000000000.0 0.27 34889.3
MP2J_C4H7O2 => MP3J_C4H7O2                           547800000.0 1.62 38760.0
MMETHMJ_C5H7O2 => CH2O + I-C3H5CO                    12300000000000.0 0.375 36713.7
HO2 + MMETHPJ_C5H7O2 => MMETHAC_C5H8O2 + O2          33010000000.000008 0.278 -110.9
C2H6 + MMETHPJ_C5H7O2 => C2H5 + MMETHAC_C5H8O2       0.33390000000000003 3.768 9065.97
MMETHPJ_C5H7O2 => A-C3H4 + CH3OCO                    10000000000000.0 0.0 51000.0
MMETHAC_C5H8O2 + O => MMETHMJ_C5H7O2 + OH            96500.00000000001 2.6 3746.18
H + MMETHAC_C5H8O2 <=> H2 + MMETHMJ_C5H7O2           19200000.000000004 2.06 7428.3
HO2 + MMETHAC_C5H8O2 <=> H2O2 + MMETHPJ_C5H7O2       23790.000000000007 2.55 16489.999999999996
MMETHAC_C5H8O2 + O2 <=> HO2 + MMETHMJ_C5H7O2         30000000000000.004 0.0 52289.9
CH3O + MMETHAC_C5H8O2 => CH3OH + MMETHPJ_C5H7O2      216900000000.00003 0.0 6457.93
CH3O2 + MMETHAC_C5H8O2 => CH3O + MMETHMJ_C5H7O2 + OH 23790.000000000007 2.55 16489.999999999996
HO2 + MMETHAC_C5H8O2 <=> H2O2 + MMETHMJ_C5H7O2       23790.000000000007 2.55 16489.999999999996
H + MMETHAC_C5H8O2 <=> H2 + MMETHPJ_C5H7O2           186000.00000000003 2.54 2786.81
CH3 + MMETHAC_C5H8O2 <=> CH4 + MMETHMJ_C5H7O2        1000000000000.0001 0.0 7299.24
CH3O2 + MMETHAC_C5H8O2 => CH3O + MMETHPJ_C5H7O2 + OH 23790.000000000007 2.55 16489.999999999996
MMETHAC_C5H8O2 + OH <=> H2O + MMETHPJ_C5H7O2         6980000.000000001 1.77 136.59
MMETHAC_C5H8O2 + O => CH3COCH2 + CH3OCO              50100000.00000001 1.76 75.76
MMETHAC_C5H8O2 + OH => CH3COCH3 + CH3OCO             1370000000000.0002 0.0 -1039.67
MMETHAC_C5H8O2 + O => MMETHPJ_C5H7O2 + OH            175000000000.00003 0.7 5884.32
MMETHAC_C5H8O2 <=> CH3O + I-C3H5CO                   955000000000000.0 -0.39 88197.9
MMETHAC_C5H8O2 <=> CH3OCO + T-C3H5                   6420000000000000.0 -0.351 83800.2
C2H3 + MMETHAC_C5H8O2 <=> C2H4 + MMETHPJ_C5H7O2      301.50000000000006 3.3 10500.0
MMETHAC_C5H8O2 + OH <=> H2O + MMETHMJ_C5H7O2         0.006110000000000001 4.28 -3420.89
CH3O + MMETHAC_C5H8O2 => CH3OH + MMETHMJ_C5H7O2      216900000000.00003 0.0 6457.93
CH3 + MMETHAC_C5H8O2 <=> CH4 + MMETHPJ_C5H7O2        0.4530000000000001 3.65 7153.92
MMETHAC_C5H8O2 + OH => CH2O + MP2J_C4H7O2            1370000000000.0002 0.0 -1027.72
N2 + S-CH2 <=> N2 + T-CH2                            15000000000000.002 0.0 599.9
END
